
     RDKit          3D

101104  0  0  0  0  0  0  0  0999 V2000
   -5.0347   -3.5742   -0.5364 C   0  0  0  0  0  0  0  0  0  0  0  0
   -4.4003   -2.3156    0.0627 C   0  0  0  0  0  0  0  0  0  0  0  0
   -5.1205   -1.9139    1.3511 C   0  0  0  0  0  0  0  0  0  0  0  0
   -2.8960   -2.5814    0.3370 C   0  0  0  0  0  0  0  0  0  0  0  0
   -2.4058   -2.7189    1.4557 O   0  0  0  0  0  0  0  0  0  0  0  0
   -2.1368   -2.6358   -0.8207 N   0  0  0  0  0  0  0  0  0  0  0  0
   -0.6809   -2.6567   -0.7424 C   0  0  1  0  0  0  0  0  0  0  0  0
   -0.0401   -3.2491   -2.0012 C   0  0  0  0  0  0  0  0  0  0  0  0
    1.4346   -3.4294   -1.8468 C   0  0  0  0  0  0  0  0  0  0  0  0
    2.5000   -2.7712   -2.4249 C   0  0  0  0  0  0  0  0  0  0  0  0
    3.6904   -3.2605   -1.9556 N   0  0  0  0  0  0  0  0  0  0  0  0
    3.3670   -4.2063   -1.1060 C   0  0  0  0  0  0  0  0  0  0  0  0
    2.0125   -4.3495   -1.0042 N   0  0  0  0  0  0  0  0  0  0  0  0
   -0.2150   -1.2096   -0.4999 C   0  0  0  0  0  0  0  0  0  0  0  0
    0.0907   -0.4023   -1.3770 O   0  0  0  0  0  0  0  0  0  0  0  0
   -0.3078   -0.8197    0.8183 N   0  0  0  0  0  0  0  0  0  0  0  0
    0.5300    0.2506    1.3609 C   0  0  2  0  0  0  0  0  0  0  0  0
    0.9636   -0.0501    2.8056 C   0  0  0  0  0  0  0  0  0  0  0  0
    1.7324   -1.3554    2.8775 C   0  0  0  0  0  0  0  0  0  0  0  0
    1.0806   -2.5493    3.2245 C   0  0  0  0  0  0  0  0  0  0  0  0
    1.7462   -3.7848    3.1640 C   0  0  0  0  0  0  0  0  0  0  0  0
    1.0871   -4.9864    3.4694 C   0  0  0  0  0  0  0  0  0  0  0  0
    1.7589   -6.2076    3.3943 C   0  0  0  0  0  0  0  0  0  0  0  0
    3.0979   -6.2430    3.0163 C   0  0  0  0  0  0  0  0  0  0  0  0
    3.7674   -5.0573    2.7104 C   0  0  0  0  0  0  0  0  0  0  0  0
    3.1038   -3.8215    2.7755 C   0  0  0  0  0  0  0  0  0  0  0  0
    3.7577   -2.6226    2.4561 C   0  0  0  0  0  0  0  0  0  0  0  0
    3.0787   -1.4031    2.5012 C   0  0  0  0  0  0  0  0  0  0  0  0
   -0.1126    1.6478    1.2313 C   0  0  0  0  0  0  0  0  0  0  0  0
    0.2252    2.6034    1.9248 O   0  0  0  0  0  0  0  0  0  0  0  0
   -0.9666    1.7738    0.1550 N   0  0  0  0  0  0  0  0  0  0  0  0
   -1.3528    3.0715   -0.3945 C   0  0  2  0  0  0  0  0  0  0  0  0
   -2.7193    3.0011   -1.1007 C   0  0  0  0  0  0  0  0  0  0  0  0
   -3.9320    2.5978   -0.2851 C   0  0  0  0  0  0  0  0  0  0  0  0
   -3.9420    2.5373    1.1139 C   0  0  0  0  0  0  0  0  0  0  0  0
   -5.1023    2.1738    1.8033 C   0  0  0  0  0  0  0  0  0  0  0  0
   -6.2714    1.8796    1.1061 C   0  0  0  0  0  0  0  0  0  0  0  0
   -6.2843    1.9527   -0.2833 C   0  0  0  0  0  0  0  0  0  0  0  0
   -5.1243    2.3113   -0.9728 C   0  0  0  0  0  0  0  0  0  0  0  0
   -0.3163    3.5561   -1.4390 C   0  0  0  0  0  0  0  0  0  0  0  0
   -0.3756    4.6796   -1.9410 O   0  0  0  0  0  0  0  0  0  0  0  0
    0.6113    2.6248   -1.8592 N   0  0  0  0  0  0  0  0  0  0  0  0
    1.5911    2.9141   -2.9068 C   0  0  1  0  0  0  0  0  0  0  0  0
    2.8921    2.1244   -2.6946 C   0  0  0  0  0  0  0  0  0  0  0  0
    3.8375    2.7410   -1.6512 C   0  0  0  0  0  0  0  0  0  0  0  0
    3.3264    2.6559   -0.2129 C   0  0  0  0  0  0  0  0  0  0  0  0
    4.3476    3.2069    0.7819 C   0  0  0  0  0  0  0  0  0  0  0  0
    3.8388    3.1254    2.1473 N   0  0  0  0  0  0  0  0  0  0  0  0
    0.9551    2.6200   -4.2876 C   0  0  0  0  0  0  0  0  0  0  0  0
    1.4776    1.9527   -5.1745 O   0  0  0  0  0  0  0  0  0  0  0  0
   -0.2398    3.2505   -4.5216 N   0  0  0  0  0  0  0  0  0  0  0  0
   -4.4912   -1.2168   -0.9335 N   0  0  0  0  0  0  0  0  0  0  0  0
   -6.1037   -3.4306   -0.7312 H   0  0  0  0  0  0  0  0  0  0  0  0
   -4.9290   -4.4256    0.1461 H   0  0  0  0  0  0  0  0  0  0  0  0
   -4.5592   -3.8613   -1.4816 H   0  0  0  0  0  0  0  0  0  0  0  0
   -6.1730   -1.6719    1.1648 H   0  0  0  0  0  0  0  0  0  0  0  0
   -5.0905   -2.7247    2.0882 H   0  0  0  0  0  0  0  0  0  0  0  0
   -4.6494   -1.0397    1.8151 H   0  0  0  0  0  0  0  0  0  0  0  0
   -2.5784   -2.1514   -1.6028 H   0  0  0  0  0  0  0  0  0  0  0  0
   -0.3918   -3.2614    0.1272 H   0  0  0  0  0  0  0  0  0  0  0  0
   -0.4939   -4.2242   -2.2207 H   0  0  0  0  0  0  0  0  0  0  0  0
   -0.2453   -2.6134   -2.8720 H   0  0  0  0  0  0  0  0  0  0  0  0
    2.4706   -1.9640   -3.1473 H   0  0  0  0  0  0  0  0  0  0  0  0
    4.0583   -4.8132   -0.5374 H   0  0  0  0  0  0  0  0  0  0  0  0
    1.5397   -5.0039   -0.3944 H   0  0  0  0  0  0  0  0  0  0  0  0
   -0.7488   -1.4703    1.4687 H   0  0  0  0  0  0  0  0  0  0  0  0
    1.4262    0.2932    0.7292 H   0  0  0  0  0  0  0  0  0  0  0  0
    1.5936    0.7566    3.2006 H   0  0  0  0  0  0  0  0  0  0  0  0
    0.0867   -0.0979    3.4642 H   0  0  0  0  0  0  0  0  0  0  0  0
    0.0323   -2.5227    3.5198 H   0  0  0  0  0  0  0  0  0  0  0  0
    0.0419   -4.9781    3.7726 H   0  0  0  0  0  0  0  0  0  0  0  0
    1.2383   -7.1294    3.6416 H   0  0  0  0  0  0  0  0  0  0  0  0
    3.6258   -7.1922    2.9686 H   0  0  0  0  0  0  0  0  0  0  0  0
    4.8162   -5.1026    2.4236 H   0  0  0  0  0  0  0  0  0  0  0  0
    4.8020   -2.6289    2.1493 H   0  0  0  0  0  0  0  0  0  0  0  0
    3.6096   -0.4964    2.2192 H   0  0  0  0  0  0  0  0  0  0  0  0
   -1.0440    0.9669   -0.4551 H   0  0  0  0  0  0  0  0  0  0  0  0
   -1.3608    3.8125    0.4131 H   0  0  0  0  0  0  0  0  0  0  0  0
   -2.6352    2.2956   -1.9401 H   0  0  0  0  0  0  0  0  0  0  0  0
   -2.9409    3.9831   -1.5401 H   0  0  0  0  0  0  0  0  0  0  0  0
   -3.0565    2.7781    1.6978 H   0  0  0  0  0  0  0  0  0  0  0  0
   -5.0936    2.1335    2.8901 H   0  0  0  0  0  0  0  0  0  0  0  0
   -7.1741    1.6092    1.6476 H   0  0  0  0  0  0  0  0  0  0  0  0
   -7.1993    1.7430   -0.8313 H   0  0  0  0  0  0  0  0  0  0  0  0
   -5.1563    2.3737   -2.0595 H   0  0  0  0  0  0  0  0  0  0  0  0
    0.4428    1.6426   -1.6534 H   0  0  0  0  0  0  0  0  0  0  0  0
    1.8159    3.9883   -2.8989 H   0  0  0  0  0  0  0  0  0  0  0  0
    3.4514    2.0891   -3.6382 H   0  0  0  0  0  0  0  0  0  0  0  0
    2.6714    1.0828   -2.4288 H   0  0  0  0  0  0  0  0  0  0  0  0
    4.7980    2.2138   -1.7138 H   0  0  0  0  0  0  0  0  0  0  0  0
    4.0387    3.7872   -1.9123 H   0  0  0  0  0  0  0  0  0  0  0  0
    2.3975    3.2248   -0.1103 H   0  0  0  0  0  0  0  0  0  0  0  0
    3.1077    1.6103    0.0279 H   0  0  0  0  0  0  0  0  0  0  0  0
    5.2856    2.6452    0.7168 H   0  0  0  0  0  0  0  0  0  0  0  0
    4.5751    4.2529    0.5501 H   0  0  0  0  0  0  0  0  0  0  0  0
    2.9335    3.5993    2.2022 H   0  0  0  0  0  0  0  0  0  0  0  0
    3.6475    2.1556    2.3881 H   0  0  0  0  0  0  0  0  0  0  0  0
   -0.5868    3.2204   -5.4704 H   0  0  0  0  0  0  0  0  0  0  0  0
   -0.4858    4.0560   -3.9500 H   0  0  0  0  0  0  0  0  0  0  0  0
   -4.2200   -0.3419   -0.4708 H   0  0  0  0  0  0  0  0  0  0  0  0
   -5.4758   -1.0694   -1.1656 H   0  0  0  0  0  0  0  0  0  0  0  0
  1  2  1  0
  2  3  1  0
  2  4  1  0
  4  5  2  0
  4  6  1  0
  6  7  1  0
  7  8  1  0
  8  9  1  0
  9 10  2  0
 10 11  1  0
 11 12  2  0
 12 13  1  0
  7 14  1  0
 14 15  2  0
 14 16  1  0
 16 17  1  0
 17 18  1  0
 18 19  1  0
 19 20  2  0
 20 21  1  0
 21 22  2  0
 22 23  1  0
 23 24  2  0
 24 25  1  0
 25 26  2  0
 26 27  1  0
 27 28  2  0
 17 29  1  0
 29 30  2  0
 29 31  1  0
 31 32  1  0
 32 33  1  0
 33 34  1  0
 34 35  2  0
 35 36  1  0
 36 37  2  0
 37 38  1  0
 38 39  2  0
 32 40  1  0
 40 41  2  0
 40 42  1  0
 42 43  1  0
 43 44  1  0
 44 45  1  0
 45 46  1  0
 46 47  1  0
 47 48  1  0
 43 49  1  0
 49 50  2  0
 49 51  1  0
  2 52  1  0
 13  9  1  0
 28 19  1  0
 26 21  1  0
 39 34  1  0
  1 53  1  0
  1 54  1  0
  1 55  1  0
  3 56  1  0
  3 57  1  0
  3 58  1  0
  6 59  1  0
  7 60  1  1
  8 61  1  0
  8 62  1  0
 10 63  1  0
 12 64  1  0
 13 65  1  0
 16 66  1  0
 17 67  1  6
 18 68  1  0
 18 69  1  0
 20 70  1  0
 22 71  1  0
 23 72  1  0
 24 73  1  0
 25 74  1  0
 27 75  1  0
 28 76  1  0
 31 77  1  0
 32 78  1  1
 33 79  1  0
 33 80  1  0
 35 81  1  0
 36 82  1  0
 37 83  1  0
 38 84  1  0
 39 85  1  0
 42 86  1  0
 43 87  1  6
 44 88  1  0
 44 89  1  0
 45 90  1  0
 45 91  1  0
 46 92  1  0
 46 93  1  0
 47 94  1  0
 47 95  1  0
 48 96  1  0
 48 97  1  0
 51 98  1  0
 51 99  1  0
 52100  1  0
 52101  1  0
M  END
$$$$
