
     RDKit          3D

 49 48  0  0  0  0  0  0  0  0999 V2000
   -4.0080    1.9627    0.6220 C   0  0  0  0  0  0  0  0  0  0  0  0
   -2.6974    1.4066    1.1613 C   0  0  1  0  0  0  0  0  0  0  0  0
   -2.5134   -0.0485    0.6944 C   0  0  0  0  0  0  0  0  0  0  0  0
   -2.7702   -1.0191    1.3965 O   0  0  0  0  0  0  0  0  0  0  0  0
   -2.0295   -0.1388   -0.5984 N   0  0  0  0  0  0  0  0  0  0  0  0
   -1.5487   -1.4030   -1.1530 C   0  0  1  0  0  0  0  0  0  0  0  0
   -1.7593   -1.4492   -2.6717 C   0  0  0  0  0  0  0  0  0  0  0  0
   -3.2011   -1.1873   -3.1121 C   0  0  0  0  0  0  0  0  0  0  0  0
   -4.2199   -2.0975   -2.4836 C   0  0  0  0  0  0  0  0  0  0  0  0
   -5.3487   -1.7766   -2.1501 O   0  0  0  0  0  0  0  0  0  0  0  0
   -3.8098   -3.3729   -2.3750 O   0  0  0  0  0  0  0  0  0  0  0  0
   -0.0444   -1.6210   -0.8415 C   0  0  0  0  0  0  0  0  0  0  0  0
    0.5751   -2.6217   -1.1942 O   0  0  0  0  0  0  0  0  0  0  0  0
    0.5624   -0.5887   -0.1671 N   0  0  0  0  0  0  0  0  0  0  0  0
    1.9106   -0.6808    0.3885 C   0  0  1  0  0  0  0  0  0  0  0  0
    2.9551   -0.3289   -0.6686 C   0  0  0  0  0  0  0  0  0  0  0  0
    4.2948   -0.8997   -0.3102 C   0  0  0  0  0  0  0  0  0  0  0  0
    4.6594   -1.2613    0.7978 O   0  0  0  0  0  0  0  0  0  0  0  0
    5.1352   -0.9376   -1.3604 O   0  0  0  0  0  0  0  0  0  0  0  0
    1.9389    0.3294    1.5592 C   0  0  0  0  0  0  0  0  0  0  0  0
    1.0717    1.1967    1.6950 O   0  0  0  0  0  0  0  0  0  0  0  0
    2.9983    0.1956    2.4244 N   0  0  0  0  0  0  0  0  0  0  0  0
    3.2777    1.2080    3.4294 C   0  0  0  0  0  0  0  0  0  0  0  0
    4.1466    2.3458    2.9071 C   0  0  0  0  0  0  0  0  0  0  0  0
    4.4889    3.3287    3.5469 O   0  0  0  0  0  0  0  0  0  0  0  0
    4.5741    2.1910    1.6344 O   0  0  0  0  0  0  0  0  0  0  0  0
   -1.5599    2.2195    0.6588 N   0  0  0  0  0  0  0  0  0  0  0  0
   -4.0291    1.9668   -0.4740 H   0  0  0  0  0  0  0  0  0  0  0  0
   -4.1735    2.9882    0.9690 H   0  0  0  0  0  0  0  0  0  0  0  0
   -4.8522    1.3517    0.9602 H   0  0  0  0  0  0  0  0  0  0  0  0
   -2.6927    1.4260    2.2563 H   0  0  0  0  0  0  0  0  0  0  0  0
   -1.6641    0.7408   -0.9625 H   0  0  0  0  0  0  0  0  0  0  0  0
   -2.0821   -2.2242   -0.6614 H   0  0  0  0  0  0  0  0  0  0  0  0
   -1.4315   -2.4249   -3.0529 H   0  0  0  0  0  0  0  0  0  0  0  0
   -1.1131   -0.7045   -3.1550 H   0  0  0  0  0  0  0  0  0  0  0  0
   -3.4792   -0.1553   -2.8696 H   0  0  0  0  0  0  0  0  0  0  0  0
   -3.2808   -1.2984   -4.1992 H   0  0  0  0  0  0  0  0  0  0  0  0
   -4.5707   -3.8347   -1.9629 H   0  0  0  0  0  0  0  0  0  0  0  0
   -0.0346    0.1376    0.2176 H   0  0  0  0  0  0  0  0  0  0  0  0
    2.0445   -1.6928    0.7889 H   0  0  0  0  0  0  0  0  0  0  0  0
    3.0588    0.7556   -0.7855 H   0  0  0  0  0  0  0  0  0  0  0  0
    2.6655   -0.7542   -1.6370 H   0  0  0  0  0  0  0  0  0  0  0  0
    5.9647   -1.3289   -1.0147 H   0  0  0  0  0  0  0  0  0  0  0  0
    3.7777   -0.3992    2.1402 H   0  0  0  0  0  0  0  0  0  0  0  0
    2.3387    1.6289    3.8001 H   0  0  0  0  0  0  0  0  0  0  0  0
    3.8165    0.7112    4.2410 H   0  0  0  0  0  0  0  0  0  0  0  0
    5.1043    2.9999    1.4720 H   0  0  0  0  0  0  0  0  0  0  0  0
   -0.7193    1.9646    1.2013 H   0  0  0  0  0  0  0  0  0  0  0  0
   -1.7264    3.1943    0.9161 H   0  0  0  0  0  0  0  0  0  0  0  0
  1  2  1  0
  2  3  1  0
  3  4  2  0
  3  5  1  0
  5  6  1  0
  6  7  1  0
  7  8  1  0
  8  9  1  0
  9 10  2  0
  9 11  1  0
  6 12  1  0
 12 13  2  0
 12 14  1  0
 14 15  1  0
 15 16  1  0
 16 17  1  0
 17 18  2  0
 17 19  1  0
 15 20  1  0
 20 21  2  0
 20 22  1  0
 22 23  1  0
 23 24  1  0
 24 25  2  0
 24 26  1  0
  2 27  1  0
  1 28  1  0
  1 29  1  0
  1 30  1  0
  2 31  1  1
  5 32  1  0
  6 33  1  1
  7 34  1  0
  7 35  1  0
  8 36  1  0
  8 37  1  0
 11 38  1  0
 14 39  1  0
 15 40  1  1
 16 41  1  0
 16 42  1  0
 19 43  1  0
 22 44  1  0
 23 45  1  0
 23 46  1  0
 26 47  1  0
 27 48  1  0
 27 49  1  0
M  END
$$$$
