
     RDKit          3D

115119  0  0  0  0  0  0  0  0999 V2000
    6.3974    0.7942   -5.2019 C   0  0  0  0  0  0  0  0  0  0  0  0
    5.1052    0.3963   -4.5011 C   0  0  2  0  0  0  0  0  0  0  0  0
    4.9005    1.2111   -3.2047 C   0  0  0  0  0  0  0  0  0  0  0  0
    5.3550    2.3365   -3.0238 O   0  0  0  0  0  0  0  0  0  0  0  0
    4.1225    0.5560   -2.2805 N   0  0  0  0  0  0  0  0  0  0  0  0
    3.9923    1.0031   -0.9018 C   0  0  2  0  0  0  0  0  0  0  0  0
    5.3105    0.9374   -0.1004 C   0  0  0  0  0  0  0  0  0  0  0  0
    6.1586   -0.2939   -0.3476 C   0  0  0  0  0  0  0  0  0  0  0  0
    5.7598   -1.5558    0.1136 C   0  0  0  0  0  0  0  0  0  0  0  0
    6.5310   -2.7020   -0.1454 C   0  0  0  0  0  0  0  0  0  0  0  0
    6.1277   -3.9704    0.3019 C   0  0  0  0  0  0  0  0  0  0  0  0
    6.9030   -5.1008    0.0380 C   0  0  0  0  0  0  0  0  0  0  0  0
    8.0913   -4.9779   -0.6758 C   0  0  0  0  0  0  0  0  0  0  0  0
    8.5062   -3.7246   -1.1287 C   0  0  0  0  0  0  0  0  0  0  0  0
    7.7363   -2.5785   -0.8725 C   0  0  0  0  0  0  0  0  0  0  0  0
    8.1376   -1.3127   -1.3223 C   0  0  0  0  0  0  0  0  0  0  0  0
    7.3575   -0.1842   -1.0631 C   0  0  0  0  0  0  0  0  0  0  0  0
    2.8783    0.1909   -0.2149 C   0  0  0  0  0  0  0  0  0  0  0  0
    2.4536   -0.8761   -0.6586 O   0  0  0  0  0  0  0  0  0  0  0  0
    2.4156    0.7327    0.9617 N   0  0  0  0  0  0  0  0  0  0  0  0
    1.2887    0.1565    1.6823 C   0  0  1  0  0  0  0  0  0  0  0  0
    1.7709   -0.6967    2.8449 C   0  0  0  0  0  0  0  0  0  0  0  0
    0.4347    1.3211    2.2014 C   0  0  0  0  0  0  0  0  0  0  0  0
    0.9493    2.3658    2.5974 O   0  0  0  0  0  0  0  0  0  0  0  0
   -0.9236    1.0864    2.1999 N   0  0  0  0  0  0  0  0  0  0  0  0
   -1.8742    2.1517    2.5320 C   0  0  1  0  0  0  0  0  0  0  0  0
   -2.4184    2.8782    1.2918 C   0  0  0  0  0  0  0  0  0  0  0  0
   -1.4107    3.7480    0.6015 C   0  0  0  0  0  0  0  0  0  0  0  0
   -1.1558    5.0749    0.8901 C   0  0  0  0  0  0  0  0  0  0  0  0
   -0.1596    5.5135    0.0612 N   0  0  0  0  0  0  0  0  0  0  0  0
    0.2370    4.5039   -0.7834 C   0  0  0  0  0  0  0  0  0  0  0  0
    1.2147    4.5015   -1.7858 C   0  0  0  0  0  0  0  0  0  0  0  0
    1.4155    3.3140   -2.4940 C   0  0  0  0  0  0  0  0  0  0  0  0
    0.6706    2.1744   -2.2057 C   0  0  0  0  0  0  0  0  0  0  0  0
   -0.2991    2.1942   -1.1968 C   0  0  0  0  0  0  0  0  0  0  0  0
   -0.5299    3.3813   -0.4702 C   0  0  0  0  0  0  0  0  0  0  0  0
   -3.0224    1.5387    3.3490 C   0  0  0  0  0  0  0  0  0  0  0  0
   -3.2029    1.8341    4.5293 O   0  0  0  0  0  0  0  0  0  0  0  0
   -3.8266    0.6294    2.6887 N   0  0  0  0  0  0  0  0  0  0  0  0
   -4.8311   -0.1444    3.4320 C   0  0  2  0  0  0  0  0  0  0  0  0
   -4.2334   -1.4257    4.0498 C   0  0  0  0  0  0  0  0  0  0  0  0
   -3.4533   -2.2765    3.0679 C   0  0  0  0  0  0  0  0  0  0  0  0
   -4.1150   -3.0707    2.1240 C   0  0  0  0  0  0  0  0  0  0  0  0
   -3.3915   -3.8138    1.1899 C   0  0  0  0  0  0  0  0  0  0  0  0
   -1.9993   -3.7842    1.2000 C   0  0  0  0  0  0  0  0  0  0  0  0
   -1.3288   -3.0170    2.1496 C   0  0  0  0  0  0  0  0  0  0  0  0
   -2.0512   -2.2662    3.0791 C   0  0  0  0  0  0  0  0  0  0  0  0
   -6.1306   -0.4504    2.6549 C   0  0  0  0  0  0  0  0  0  0  0  0
   -7.0443   -1.1189    3.1385 O   0  0  0  0  0  0  0  0  0  0  0  0
   -6.2283    0.1162    1.4009 N   0  0  0  0  0  0  0  0  0  0  0  0
   -7.3784   -0.1816    0.5633 C   0  0  1  0  0  0  0  0  0  0  0  0
   -7.5741    0.8553   -0.5520 C   0  0  0  0  0  0  0  0  0  0  0  0
   -6.5680    0.8245   -1.7151 C   0  0  0  0  0  0  0  0  0  0  0  0
   -5.2010    1.4572   -1.4267 C   0  0  0  0  0  0  0  0  0  0  0  0
   -4.0238    0.4779   -1.4735 C   0  0  0  0  0  0  0  0  0  0  0  0
   -3.9397   -0.3702   -0.2795 N   0  0  0  0  0  0  0  0  0  0  0  0
   -7.2780   -1.6046   -0.0242 C   0  0  0  0  0  0  0  0  0  0  0  0
   -6.2141   -2.1550   -0.3032 O   0  0  0  0  0  0  0  0  0  0  0  0
   -8.4680   -2.2124   -0.3126 N   0  0  0  0  0  0  0  0  0  0  0  0
    5.1044   -1.0527   -4.1913 N   0  0  0  0  0  0  0  0  0  0  0  0
    7.2684    0.6309   -4.5569 H   0  0  0  0  0  0  0  0  0  0  0  0
    6.5408    0.2196   -6.1233 H   0  0  0  0  0  0  0  0  0  0  0  0
    6.3832    1.8561   -5.4705 H   0  0  0  0  0  0  0  0  0  0  0  0
    4.2518    0.6112   -5.1540 H   0  0  0  0  0  0  0  0  0  0  0  0
    3.9586   -0.4334   -2.4740 H   0  0  0  0  0  0  0  0  0  0  0  0
    3.6609    2.0484   -0.9290 H   0  0  0  0  0  0  0  0  0  0  0  0
    5.1205    1.0153    0.9776 H   0  0  0  0  0  0  0  0  0  0  0  0
    5.9076    1.8246   -0.3503 H   0  0  0  0  0  0  0  0  0  0  0  0
    4.8338   -1.6561    0.6768 H   0  0  0  0  0  0  0  0  0  0  0  0
    5.2008   -4.0864    0.8593 H   0  0  0  0  0  0  0  0  0  0  0  0
    6.5775   -6.0759    0.3906 H   0  0  0  0  0  0  0  0  0  0  0  0
    8.6966   -5.8571   -0.8803 H   0  0  0  0  0  0  0  0  0  0  0  0
    9.4385   -3.6484   -1.6835 H   0  0  0  0  0  0  0  0  0  0  0  0
    9.0646   -1.1940   -1.8786 H   0  0  0  0  0  0  0  0  0  0  0  0
    7.6906    0.7850   -1.4315 H   0  0  0  0  0  0  0  0  0  0  0  0
    2.6294    1.7030    1.1838 H   0  0  0  0  0  0  0  0  0  0  0  0
    0.6903   -0.4512    0.9945 H   0  0  0  0  0  0  0  0  0  0  0  0
    2.4078   -0.1178    3.5238 H   0  0  0  0  0  0  0  0  0  0  0  0
    2.3584   -1.5483    2.4858 H   0  0  0  0  0  0  0  0  0  0  0  0
    0.9306   -1.0790    3.4316 H   0  0  0  0  0  0  0  0  0  0  0  0
   -1.2803    0.2249    1.8060 H   0  0  0  0  0  0  0  0  0  0  0  0
   -1.3739    2.8772    3.1861 H   0  0  0  0  0  0  0  0  0  0  0  0
   -2.8073    2.1540    0.5706 H   0  0  0  0  0  0  0  0  0  0  0  0
   -3.2758    3.5008    1.5815 H   0  0  0  0  0  0  0  0  0  0  0  0
   -1.5876    5.7393    1.6270 H   0  0  0  0  0  0  0  0  0  0  0  0
    0.2373    6.4425    0.0681 H   0  0  0  0  0  0  0  0  0  0  0  0
    1.8038    5.3854   -2.0079 H   0  0  0  0  0  0  0  0  0  0  0  0
    2.1758    3.2779   -3.2720 H   0  0  0  0  0  0  0  0  0  0  0  0
    0.8538    1.2558   -2.7589 H   0  0  0  0  0  0  0  0  0  0  0  0
   -0.8575    1.2920   -0.9740 H   0  0  0  0  0  0  0  0  0  0  0  0
   -3.5537    0.2797    1.7719 H   0  0  0  0  0  0  0  0  0  0  0  0
   -5.1757    0.4858    4.2634 H   0  0  0  0  0  0  0  0  0  0  0  0
   -3.5649   -1.1411    4.8733 H   0  0  0  0  0  0  0  0  0  0  0  0
   -5.0159   -2.0442    4.5071 H   0  0  0  0  0  0  0  0  0  0  0  0
   -5.2023   -3.1188    2.1017 H   0  0  0  0  0  0  0  0  0  0  0  0
   -3.9210   -4.4176    0.4567 H   0  0  0  0  0  0  0  0  0  0  0  0
   -1.4376   -4.3719    0.4781 H   0  0  0  0  0  0  0  0  0  0  0  0
   -0.2421   -3.0179    2.1711 H   0  0  0  0  0  0  0  0  0  0  0  0
   -1.5156   -1.6779    3.8218 H   0  0  0  0  0  0  0  0  0  0  0  0
   -5.3400    0.2616    0.9262 H   0  0  0  0  0  0  0  0  0  0  0  0
   -8.2642   -0.1510    1.2113 H   0  0  0  0  0  0  0  0  0  0  0  0
   -8.5678    0.6858   -0.9886 H   0  0  0  0  0  0  0  0  0  0  0  0
   -7.5994    1.8633   -0.1191 H   0  0  0  0  0  0  0  0  0  0  0  0
   -7.0228    1.4123   -2.5247 H   0  0  0  0  0  0  0  0  0  0  0  0
   -6.4638   -0.1860   -2.1233 H   0  0  0  0  0  0  0  0  0  0  0  0
   -5.0152    2.2067   -2.2081 H   0  0  0  0  0  0  0  0  0  0  0  0
   -5.2054    2.0167   -0.4841 H   0  0  0  0  0  0  0  0  0  0  0  0
   -3.0987    1.0555   -1.5451 H   0  0  0  0  0  0  0  0  0  0  0  0
   -4.0757   -0.1489   -2.3707 H   0  0  0  0  0  0  0  0  0  0  0  0
   -3.0938   -0.9456   -0.3708 H   0  0  0  0  0  0  0  0  0  0  0  0
   -4.6718   -1.1026   -0.3713 H   0  0  0  0  0  0  0  0  0  0  0  0
   -8.3983   -3.1822   -0.5965 H   0  0  0  0  0  0  0  0  0  0  0  0
   -9.2934   -1.9669    0.2203 H   0  0  0  0  0  0  0  0  0  0  0  0
    5.8806   -1.2544   -3.5543 H   0  0  0  0  0  0  0  0  0  0  0  0
    5.3087   -1.5755   -5.0424 H   0  0  0  0  0  0  0  0  0  0  0  0
  1  2  1  0
  2  3  1  0
  3  4  2  0
  3  5  1  0
  5  6  1  0
  6  7  1  0
  7  8  1  0
  8  9  2  0
  9 10  1  0
 10 11  2  0
 11 12  1  0
 12 13  2  0
 13 14  1  0
 14 15  2  0
 15 16  1  0
 16 17  2  0
  6 18  1  0
 18 19  2  0
 18 20  1  0
 20 21  1  0
 21 22  1  0
 21 23  1  0
 23 24  2  0
 23 25  1  0
 25 26  1  0
 26 27  1  0
 27 28  1  0
 28 29  2  0
 29 30  1  0
 30 31  1  0
 31 32  2  0
 32 33  1  0
 33 34  2  0
 34 35  1  0
 35 36  2  0
 26 37  1  0
 37 38  2  0
 37 39  1  0
 39 40  1  0
 40 41  1  0
 41 42  1  0
 42 43  2  0
 43 44  1  0
 44 45  2  0
 45 46  1  0
 46 47  2  0
 40 48  1  0
 48 49  2  0
 48 50  1  0
 50 51  1  0
 51 52  1  0
 52 53  1  0
 53 54  1  0
 54 55  1  0
 55 56  1  0
 51 57  1  0
 57 58  2  0
 57 59  1  0
  2 60  1  0
 17  8  1  0
 15 10  1  0
 36 28  1  0
 36 31  1  0
 47 42  1  0
  1 61  1  0
  1 62  1  0
  1 63  1  0
  2 64  1  6
  5 65  1  0
  6 66  1  6
  7 67  1  0
  7 68  1  0
  9 69  1  0
 11 70  1  0
 12 71  1  0
 13 72  1  0
 14 73  1  0
 16 74  1  0
 17 75  1  0
 20 76  1  0
 21 77  1  6
 22 78  1  0
 22 79  1  0
 22 80  1  0
 25 81  1  0
 26 82  1  1
 27 83  1  0
 27 84  1  0
 29 85  1  0
 30 86  1  0
 32 87  1  0
 33 88  1  0
 34 89  1  0
 35 90  1  0
 39 91  1  0
 40 92  1  1
 41 93  1  0
 41 94  1  0
 43 95  1  0
 44 96  1  0
 45 97  1  0
 46 98  1  0
 47 99  1  0
 50100  1  0
 51101  1  1
 52102  1  0
 52103  1  0
 53104  1  0
 53105  1  0
 54106  1  0
 54107  1  0
 55108  1  0
 55109  1  0
 56110  1  0
 56111  1  0
 59112  1  0
 59113  1  0
 60114  1  0
 60115  1  0
M  END
$$$$
