
     RDKit          3D

 46 46  0  0  0  0  0  0  0  0999 V2000
   -3.2901   -2.2619   -1.9490 C   0  0  0  0  0  0  0  0  0  0  0  0
   -3.7233   -0.9753   -1.6736 C   0  0  0  0  0  0  0  0  0  0  0  0
   -4.9730   -0.8530   -2.1926 N   0  0  0  0  0  0  0  0  0  0  0  0
   -5.2905   -2.0376   -2.7517 C   0  0  0  0  0  0  0  0  0  0  0  0
   -4.2710   -2.9079   -2.6201 N   0  0  0  0  0  0  0  0  0  0  0  0
   -3.0445    0.1663   -1.0031 C   0  0  0  0  0  0  0  0  0  0  0  0
   -2.5702   -0.1487    0.4199 C   0  0  1  0  0  0  0  0  0  0  0  0
   -1.0682   -0.5523    0.3903 C   0  0  0  0  0  0  0  0  0  0  0  0
   -0.6783   -1.6925    0.1459 O   0  0  0  0  0  0  0  0  0  0  0  0
   -0.2016    0.5140    0.5307 N   0  0  0  0  0  0  0  0  0  0  0  0
    1.2375    0.3793    0.8395 C   0  0  1  0  0  0  0  0  0  0  0  0
    2.0369    0.1935   -0.4548 C   0  0  0  0  0  0  0  0  0  0  0  0
    3.3195   -0.6203   -0.2492 C   0  0  0  0  0  0  0  0  0  0  0  0
    4.0713   -0.8039   -1.5694 C   0  0  0  0  0  0  0  0  0  0  0  0
    5.3572   -1.6053   -1.3694 C   0  0  0  0  0  0  0  0  0  0  0  0
    6.0608   -1.7857   -2.6427 N   0  0  0  0  0  0  0  0  0  0  0  0
    1.7208    1.6257    1.6770 C   0  0  0  0  0  0  0  0  0  0  0  0
    2.9633    1.7747    1.8315 O   0  0  0  0  0  0  0  0  0  0  0  0
    0.7655    2.3544    2.1117 O   0  0  0  0  0  0  0  0  0  0  0  0
   -2.7042    1.0484    1.2779 N   0  0  0  0  0  0  0  0  0  0  0  0
   -2.6917    0.9796    2.6537 C   0  0  0  0  0  0  0  0  0  0  0  0
   -2.8611   -0.0493    3.3013 O   0  0  0  0  0  0  0  0  0  0  0  0
   -2.4769    2.3432    3.3235 C   0  0  0  0  0  0  0  0  0  0  0  0
   -1.8250    3.3009    2.4028 N   0  0  0  0  0  0  0  0  0  0  0  0
   -2.3396   -2.7109   -1.6967 H   0  0  0  0  0  0  0  0  0  0  0  0
   -6.2299   -2.2568   -3.2406 H   0  0  0  0  0  0  0  0  0  0  0  0
   -3.7501    1.0080   -0.9817 H   0  0  0  0  0  0  0  0  0  0  0  0
   -2.2100    0.4798   -1.6432 H   0  0  0  0  0  0  0  0  0  0  0  0
   -3.1325   -0.9619    0.8930 H   0  0  0  0  0  0  0  0  0  0  0  0
   -0.5803    1.3381    0.9881 H   0  0  0  0  0  0  0  0  0  0  0  0
    1.3389   -0.5033    1.4830 H   0  0  0  0  0  0  0  0  0  0  0  0
    2.2848    1.1721   -0.8852 H   0  0  0  0  0  0  0  0  0  0  0  0
    1.4232   -0.3243   -1.2033 H   0  0  0  0  0  0  0  0  0  0  0  0
    3.9758   -0.1260    0.4742 H   0  0  0  0  0  0  0  0  0  0  0  0
    3.0656   -1.6037    0.1650 H   0  0  0  0  0  0  0  0  0  0  0  0
    4.3097    0.1798   -1.9933 H   0  0  0  0  0  0  0  0  0  0  0  0
    3.4221   -1.3170   -2.2901 H   0  0  0  0  0  0  0  0  0  0  0  0
    6.0220   -1.0904   -0.6676 H   0  0  0  0  0  0  0  0  0  0  0  0
    5.1317   -2.5904   -0.9472 H   0  0  0  0  0  0  0  0  0  0  0  0
    6.2271   -0.8634   -3.0452 H   0  0  0  0  0  0  0  0  0  0  0  0
    5.4242   -2.2497   -3.2914 H   0  0  0  0  0  0  0  0  0  0  0  0
   -2.4420    1.9607    0.9081 H   0  0  0  0  0  0  0  0  0  0  0  0
   -3.4527    2.7328    3.6280 H   0  0  0  0  0  0  0  0  0  0  0  0
   -1.8471    2.2041    4.2075 H   0  0  0  0  0  0  0  0  0  0  0  0
   -1.6676    4.1698    2.9109 H   0  0  0  0  0  0  0  0  0  0  0  0
   -0.8365    2.9666    2.2766 H   0  0  0  0  0  0  0  0  0  0  0  0
  1  2  2  0
  2  3  1  0
  3  4  2  0
  4  5  1  0
  2  6  1  0
  6  7  1  0
  7  8  1  0
  8  9  2  0
  8 10  1  0
 10 11  1  0
 11 12  1  0
 12 13  1  0
 13 14  1  0
 14 15  1  0
 15 16  1  0
 11 17  1  0
 17 18  2  0
 17 19  1  0
  7 20  1  0
 20 21  1  0
 21 22  2  0
 21 23  1  0
 23 24  1  0
  5  1  1  0
  1 25  1  0
  4 26  1  0
  6 27  1  0
  6 28  1  0
  7 29  1  1
 10 30  1  0
 11 31  1  1
 12 32  1  0
 12 33  1  0
 13 34  1  0
 13 35  1  0
 14 36  1  0
 14 37  1  0
 15 38  1  0
 15 39  1  0
 16 40  1  0
 16 41  1  0
 20 42  1  0
 23 43  1  0
 23 44  1  0
 24 45  1  0
 24 46  1  0
M  CHG  2   5  -1  19  -1
M  END
$$$$
