
     RDKit          3D

 54 54  0  0  0  0  0  0  0  0999 V2000
   -5.4583   -0.4912    2.0216 C   0  0  0  0  0  0  0  0  0  0  0  0
   -4.5642   -1.6524    1.5742 C   0  0  0  0  0  0  0  0  0  0  0  0
   -3.5367   -1.9676    2.6655 C   0  0  0  0  0  0  0  0  0  0  0  0
   -3.8667   -1.4098    0.2187 C   0  0  1  0  0  0  0  0  0  0  0  0
   -4.8871   -1.3139   -0.9193 C   0  0  0  0  0  0  0  0  0  0  0  0
   -5.2463   -0.2903   -1.4848 O   0  0  0  0  0  0  0  0  0  0  0  0
   -5.4257   -2.5036   -1.2539 O   0  0  0  0  0  0  0  0  0  0  0  0
   -3.0594   -0.1886    0.2121 N   0  0  0  0  0  0  0  0  0  0  0  0
   -1.9084   -0.1142   -0.5537 C   0  0  0  0  0  0  0  0  0  0  0  0
   -1.4412   -1.0851   -1.1454 O   0  0  0  0  0  0  0  0  0  0  0  0
   -1.3340    1.3134   -0.6661 C   0  0  2  0  0  0  0  0  0  0  0  0
   -2.0742    2.0657   -1.7800 C   0  0  0  0  0  0  0  0  0  0  0  0
   -0.9766    2.8358   -2.5045 C   0  0  0  0  0  0  0  0  0  0  0  0
    0.2307    1.9202   -2.3872 C   0  0  0  0  0  0  0  0  0  0  0  0
    0.0627    1.3087   -1.0834 N   0  0  0  0  0  0  0  0  0  0  0  0
    1.0502    0.8856   -0.2186 C   0  0  0  0  0  0  0  0  0  0  0  0
    0.7840    0.5667    0.9438 O   0  0  0  0  0  0  0  0  0  0  0  0
    2.5033    0.8619   -0.7560 C   0  0  2  0  0  0  0  0  0  0  0  0
    3.3489   -0.1514    0.0382 C   0  0  0  0  0  0  0  0  0  0  0  0
    4.6983   -0.4609   -0.6242 C   0  0  0  0  0  0  0  0  0  0  0  0
    5.5238   -1.4982    0.1494 C   0  0  0  0  0  0  0  0  0  0  0  0
    6.4943   -0.9023    1.1738 C   0  0  0  0  0  0  0  0  0  0  0  0
    5.8232   -0.1603    2.2302 N   0  0  0  0  0  0  0  0  0  0  0  0
    3.0687    2.2261   -0.6528 N   0  0  0  0  0  0  0  0  0  0  0  0
   -4.8795    0.4179    2.2140 H   0  0  0  0  0  0  0  0  0  0  0  0
   -6.2188   -0.2608    1.2693 H   0  0  0  0  0  0  0  0  0  0  0  0
   -5.9827   -0.7492    2.9483 H   0  0  0  0  0  0  0  0  0  0  0  0
   -5.2096   -2.5349    1.4706 H   0  0  0  0  0  0  0  0  0  0  0  0
   -2.9147   -2.8222    2.3789 H   0  0  0  0  0  0  0  0  0  0  0  0
   -2.8765   -1.1150    2.8566 H   0  0  0  0  0  0  0  0  0  0  0  0
   -4.0372   -2.2215    3.6060 H   0  0  0  0  0  0  0  0  0  0  0  0
   -3.2117   -2.2586   -0.0136 H   0  0  0  0  0  0  0  0  0  0  0  0
   -6.0293   -2.2957   -1.9974 H   0  0  0  0  0  0  0  0  0  0  0  0
   -3.5559    0.6806    0.3645 H   0  0  0  0  0  0  0  0  0  0  0  0
   -1.4139    1.8284    0.2982 H   0  0  0  0  0  0  0  0  0  0  0  0
   -2.5612    1.3739   -2.4786 H   0  0  0  0  0  0  0  0  0  0  0  0
   -2.8487    2.7289   -1.3821 H   0  0  0  0  0  0  0  0  0  0  0  0
   -0.7836    3.7790   -1.9789 H   0  0  0  0  0  0  0  0  0  0  0  0
   -1.2323    3.0681   -3.5419 H   0  0  0  0  0  0  0  0  0  0  0  0
    1.1703    2.4660   -2.4841 H   0  0  0  0  0  0  0  0  0  0  0  0
    0.1978    1.1214   -3.1360 H   0  0  0  0  0  0  0  0  0  0  0  0
    2.4802    0.5562   -1.8079 H   0  0  0  0  0  0  0  0  0  0  0  0
    3.4946    0.2141    1.0606 H   0  0  0  0  0  0  0  0  0  0  0  0
    2.7850   -1.0892    0.1308 H   0  0  0  0  0  0  0  0  0  0  0  0
    4.4950   -0.8669   -1.6235 H   0  0  0  0  0  0  0  0  0  0  0  0
    5.2892    0.4492   -0.7717 H   0  0  0  0  0  0  0  0  0  0  0  0
    6.1280   -2.0567   -0.5772 H   0  0  0  0  0  0  0  0  0  0  0  0
    4.8664   -2.2328    0.6302 H   0  0  0  0  0  0  0  0  0  0  0  0
    7.0765   -1.7142    1.6239 H   0  0  0  0  0  0  0  0  0  0  0  0
    7.2039   -0.2385    0.6679 H   0  0  0  0  0  0  0  0  0  0  0  0
    5.1483   -0.7638    2.7001 H   0  0  0  0  0  0  0  0  0  0  0  0
    6.5022    0.1131    2.9394 H   0  0  0  0  0  0  0  0  0  0  0  0
    4.0562    2.1979   -0.8998 H   0  0  0  0  0  0  0  0  0  0  0  0
    3.0527    2.4899    0.3356 H   0  0  0  0  0  0  0  0  0  0  0  0
  1  2  1  0
  2  3  1  0
  2  4  1  0
  4  5  1  0
  5  6  2  0
  5  7  1  0
  4  8  1  0
  8  9  1  0
  9 10  2  0
  9 11  1  0
 11 12  1  0
 12 13  1  0
 13 14  1  0
 14 15  1  0
 15 16  1  0
 16 17  2  0
 16 18  1  0
 18 19  1  0
 19 20  1  0
 20 21  1  0
 21 22  1  0
 22 23  1  0
 18 24  1  0
 15 11  1  0
  1 25  1  0
  1 26  1  0
  1 27  1  0
  2 28  1  0
  3 29  1  0
  3 30  1  0
  3 31  1  0
  4 32  1  6
  7 33  1  0
  8 34  1  0
 11 35  1  1
 12 36  1  0
 12 37  1  0
 13 38  1  0
 13 39  1  0
 14 40  1  0
 14 41  1  0
 18 42  1  6
 19 43  1  0
 19 44  1  0
 20 45  1  0
 20 46  1  0
 21 47  1  0
 21 48  1  0
 22 49  1  0
 22 50  1  0
 23 51  1  0
 23 52  1  0
 24 53  1  0
 24 54  1  0
M  END
$$$$
