
     RDKit          3D

 95 96  0  0  0  0  0  0  0  0999 V2000
   -2.9917   -1.2311   -2.7224 C   0  0  0  0  0  0  0  0  0  0  0  0
   -3.2511    0.2004   -2.3298 C   0  0  0  0  0  0  0  0  0  0  0  0
   -4.5162    0.7316   -2.6394 C   0  0  0  0  0  0  0  0  0  0  0  0
   -4.8329    2.0370   -2.2946 C   0  0  0  0  0  0  0  0  0  0  0  0
   -3.9128    2.8358   -1.6365 C   0  0  0  0  0  0  0  0  0  0  0  0
   -2.6483    2.3325   -1.2916 C   0  0  0  0  0  0  0  0  0  0  0  0
   -2.3067    0.9959   -1.6291 C   0  0  0  0  0  0  0  0  0  0  0  0
   -0.9549    0.4232   -1.2228 C   0  0  0  0  0  0  0  0  0  0  0  0
   -1.0268   -0.5605   -0.0418 C   0  0  1  0  0  0  0  0  0  0  0  0
    0.3994   -1.0059    0.3270 C   0  0  0  0  0  0  0  0  0  0  0  0
    1.0326   -0.4922    1.2495 O   0  0  0  0  0  0  0  0  0  0  0  0
    0.9242   -1.9919   -0.4854 N   0  0  0  0  0  0  0  0  0  0  0  0
    2.3554   -2.2787   -0.4496 C   0  0  1  0  0  0  0  0  0  0  0  0
    2.6446   -3.7283   -0.8495 C   0  0  0  0  0  0  0  0  0  0  0  0
    2.0237   -4.7945    0.0628 C   0  0  0  0  0  0  0  0  0  0  0  0
    2.5780   -4.8076    1.4927 C   0  0  0  0  0  0  0  0  0  0  0  0
    1.6567   -4.1128    2.4962 C   0  0  0  0  0  0  0  0  0  0  0  0
    2.2278   -4.1919    3.8366 N   0  0  0  0  0  0  0  0  0  0  0  0
    3.0311   -1.3207   -1.4551 C   0  0  0  0  0  0  0  0  0  0  0  0
    2.4047   -0.7476   -2.3471 O   0  0  0  0  0  0  0  0  0  0  0  0
    4.3885   -1.1905   -1.3049 N   0  0  0  0  0  0  0  0  0  0  0  0
    5.1933   -0.3338   -2.1763 C   0  0  1  0  0  0  0  0  0  0  0  0
    5.0543    1.1460   -1.7800 C   0  0  0  0  0  0  0  0  0  0  0  0
    5.5586    2.1052   -2.8327 C   0  0  0  0  0  0  0  0  0  0  0  0
    6.7225    2.8555   -2.6170 C   0  0  0  0  0  0  0  0  0  0  0  0
    7.1969    3.7210   -3.6036 C   0  0  0  0  0  0  0  0  0  0  0  0
    6.5108    3.8486   -4.8098 C   0  0  0  0  0  0  0  0  0  0  0  0
    5.3466    3.1152   -5.0297 C   0  0  0  0  0  0  0  0  0  0  0  0
    4.8701    2.2489   -4.0454 C   0  0  0  0  0  0  0  0  0  0  0  0
    6.6473   -0.8160   -2.0329 C   0  0  0  0  0  0  0  0  0  0  0  0
    7.0285   -1.5063   -1.0878 O   0  0  0  0  0  0  0  0  0  0  0  0
    7.5181   -0.4427   -3.0128 N   0  0  0  0  0  0  0  0  0  0  0  0
   -1.6160    0.0473    1.1485 N   0  0  0  0  0  0  0  0  0  0  0  0
   -2.5172   -0.6361    1.9286 C   0  0  0  0  0  0  0  0  0  0  0  0
   -2.9469   -1.7530    1.6417 O   0  0  0  0  0  0  0  0  0  0  0  0
   -2.9553    0.1074    3.2144 C   0  0  1  0  0  0  0  0  0  0  0  0
   -3.6152    1.4631    2.9147 C   0  0  0  0  0  0  0  0  0  0  0  0
   -4.8896    1.4425    2.0579 C   0  0  0  0  0  0  0  0  0  0  0  0
   -6.1770    1.0348    2.7723 C   0  0  0  0  0  0  0  0  0  0  0  0
   -6.5271    2.0048    3.8061 N   0  0  0  0  0  0  0  0  0  0  0  0
   -6.3456    1.7175    5.0374 C   0  0  0  0  0  0  0  0  0  0  0  0
   -6.7342    2.5971    5.9874 N   0  0  0  0  0  0  0  0  0  0  0  0
   -5.8045    0.6262    5.6216 N   0  0  0  0  0  0  0  0  0  0  0  0
   -3.8125   -0.7860    4.0315 N   0  0  0  0  0  0  0  0  0  0  0  0
   -1.6964    3.2602   -0.5827 C   0  0  0  0  0  0  0  0  0  0  0  0
   -6.0492    2.5775   -2.5895 O   0  0  0  0  0  0  0  0  0  0  0  0
   -3.2261   -1.8981   -1.8878 H   0  0  0  0  0  0  0  0  0  0  0  0
   -1.9561   -1.3866   -3.0357 H   0  0  0  0  0  0  0  0  0  0  0  0
   -3.6154   -1.5220   -3.5753 H   0  0  0  0  0  0  0  0  0  0  0  0
   -5.2465    0.1132   -3.1539 H   0  0  0  0  0  0  0  0  0  0  0  0
   -4.1918    3.8564   -1.3849 H   0  0  0  0  0  0  0  0  0  0  0  0
   -0.4991   -0.0585   -2.0965 H   0  0  0  0  0  0  0  0  0  0  0  0
   -0.2508    1.2278   -0.9810 H   0  0  0  0  0  0  0  0  0  0  0  0
   -1.5981   -1.4532   -0.3127 H   0  0  0  0  0  0  0  0  0  0  0  0
    0.4889   -2.1042   -1.3945 H   0  0  0  0  0  0  0  0  0  0  0  0
    2.7568   -2.0598    0.5454 H   0  0  0  0  0  0  0  0  0  0  0  0
    3.7292   -3.8906   -0.8941 H   0  0  0  0  0  0  0  0  0  0  0  0
    2.2760   -3.9006   -1.8700 H   0  0  0  0  0  0  0  0  0  0  0  0
    2.2513   -5.7681   -0.3908 H   0  0  0  0  0  0  0  0  0  0  0  0
    0.9307   -4.7117    0.0649 H   0  0  0  0  0  0  0  0  0  0  0  0
    2.6898   -5.8555    1.8025 H   0  0  0  0  0  0  0  0  0  0  0  0
    3.5827   -4.3681    1.5191 H   0  0  0  0  0  0  0  0  0  0  0  0
    1.5090   -3.0631    2.2349 H   0  0  0  0  0  0  0  0  0  0  0  0
    0.6739   -4.5963    2.5000 H   0  0  0  0  0  0  0  0  0  0  0  0
    1.6118   -3.7072    4.4889 H   0  0  0  0  0  0  0  0  0  0  0  0
    3.1128   -3.6868    3.8617 H   0  0  0  0  0  0  0  0  0  0  0  0
    4.8842   -1.6725   -0.5584 H   0  0  0  0  0  0  0  0  0  0  0  0
    4.8650   -0.5111   -3.2073 H   0  0  0  0  0  0  0  0  0  0  0  0
    4.0026    1.3949   -1.5859 H   0  0  0  0  0  0  0  0  0  0  0  0
    5.5751    1.3271   -0.8302 H   0  0  0  0  0  0  0  0  0  0  0  0
    7.2692    2.7721   -1.6797 H   0  0  0  0  0  0  0  0  0  0  0  0
    8.0988    4.3025   -3.4284 H   0  0  0  0  0  0  0  0  0  0  0  0
    6.8773    4.5284   -5.5749 H   0  0  0  0  0  0  0  0  0  0  0  0
    4.8039    3.2243   -5.9655 H   0  0  0  0  0  0  0  0  0  0  0  0
    3.9520    1.6915   -4.2273 H   0  0  0  0  0  0  0  0  0  0  0  0
    7.2931    0.2686   -3.6990 H   0  0  0  0  0  0  0  0  0  0  0  0
    8.4913   -0.6932   -2.8949 H   0  0  0  0  0  0  0  0  0  0  0  0
   -1.0606    0.7671    1.5972 H   0  0  0  0  0  0  0  0  0  0  0  0
   -2.0445    0.2951    3.7971 H   0  0  0  0  0  0  0  0  0  0  0  0
   -3.8016    1.9929    3.8559 H   0  0  0  0  0  0  0  0  0  0  0  0
   -2.8832    2.0839    2.3814 H   0  0  0  0  0  0  0  0  0  0  0  0
   -4.7434    0.7931    1.1872 H   0  0  0  0  0  0  0  0  0  0  0  0
   -5.0340    2.4557    1.6592 H   0  0  0  0  0  0  0  0  0  0  0  0
   -6.1498    0.0033    3.1304 H   0  0  0  0  0  0  0  0  0  0  0  0
   -6.9884    1.0486    2.0338 H   0  0  0  0  0  0  0  0  0  0  0  0
   -7.2736    2.1439    6.7146 H   0  0  0  0  0  0  0  0  0  0  0  0
   -7.2807    3.3336    5.5510 H   0  0  0  0  0  0  0  0  0  0  0  0
   -5.2800    0.8678    6.4528 H   0  0  0  0  0  0  0  0  0  0  0  0
   -5.1871    0.0913    5.0010 H   0  0  0  0  0  0  0  0  0  0  0  0
   -3.2141   -1.5525    4.3562 H   0  0  0  0  0  0  0  0  0  0  0  0
   -4.4201   -1.2784    3.3613 H   0  0  0  0  0  0  0  0  0  0  0  0
   -2.1702    4.2183   -0.3423 H   0  0  0  0  0  0  0  0  0  0  0  0
   -1.3611    2.8253    0.3629 H   0  0  0  0  0  0  0  0  0  0  0  0
   -0.8320    3.4726   -1.2197 H   0  0  0  0  0  0  0  0  0  0  0  0
   -6.6024    1.8911   -2.9959 H   0  0  0  0  0  0  0  0  0  0  0  0
  1  2  1  0
  2  3  1  0
  3  4  2  0
  4  5  1  0
  5  6  2  0
  6  7  1  0
  7  8  1  0
  8  9  1  0
  9 10  1  0
 10 11  2  0
 10 12  1  0
 12 13  1  0
 13 14  1  0
 14 15  1  0
 15 16  1  0
 16 17  1  0
 17 18  1  0
 13 19  1  0
 19 20  2  0
 19 21  1  0
 21 22  1  0
 22 23  1  0
 23 24  1  0
 24 25  2  0
 25 26  1  0
 26 27  2  0
 27 28  1  0
 28 29  2  0
 22 30  1  0
 30 31  2  0
 30 32  1  0
  9 33  1  0
 33 34  1  0
 34 35  2  0
 34 36  1  0
 36 37  1  0
 37 38  1  0
 38 39  1  0
 39 40  1  0
 40 41  2  3
 41 42  1  0
 41 43  1  0
 36 44  1  0
  6 45  1  0
  4 46  1  0
  7  2  2  0
 29 24  1  0
  1 47  1  0
  1 48  1  0
  1 49  1  0
  3 50  1  0
  5 51  1  0
  8 52  1  0
  8 53  1  0
  9 54  1  6
 12 55  1  0
 13 56  1  1
 14 57  1  0
 14 58  1  0
 15 59  1  0
 15 60  1  0
 16 61  1  0
 16 62  1  0
 17 63  1  0
 17 64  1  0
 18 65  1  0
 18 66  1  0
 21 67  1  0
 22 68  1  6
 23 69  1  0
 23 70  1  0
 25 71  1  0
 26 72  1  0
 27 73  1  0
 28 74  1  0
 29 75  1  0
 32 76  1  0
 32 77  1  0
 33 78  1  0
 36 79  1  1
 37 80  1  0
 37 81  1  0
 38 82  1  0
 38 83  1  0
 39 84  1  0
 39 85  1  0
 42 86  1  0
 42 87  1  0
 43 88  1  0
 43 89  1  0
 44 90  1  0
 44 91  1  0
 45 92  1  0
 45 93  1  0
 45 94  1  0
 46 95  1  0
M  END
$$$$
