
     RDKit          3D

108109  0  0  0  0  0  0  0  0999 V2000
   -4.9458    2.5135   -1.2203 C   0  0  0  0  0  0  0  0  0  0  0  0
   -5.5190    1.4050   -0.3437 C   0  0  1  0  0  0  0  0  0  0  0  0
   -4.4449    0.9615    0.6672 C   0  0  0  0  0  0  0  0  0  0  0  0
   -3.5885    0.1139    0.4145 O   0  0  0  0  0  0  0  0  0  0  0  0
   -4.4030    1.7174    1.8283 N   0  0  0  0  0  0  0  0  0  0  0  0
   -3.3263    1.4943    2.7735 C   0  0  0  0  0  0  0  0  0  0  0  0
   -2.0369    2.0797    2.1956 C   0  0  0  0  0  0  0  0  0  0  0  0
   -1.9254    3.2739    1.9313 O   0  0  0  0  0  0  0  0  0  0  0  0
   -1.0688    1.1407    1.9134 N   0  0  0  0  0  0  0  0  0  0  0  0
    0.1490    1.4993    1.2055 C   0  0  0  0  0  0  0  0  0  0  0  0
    0.0670    1.3499   -0.3204 C   0  0  0  0  0  0  0  0  0  0  0  0
    1.0081    1.6646   -1.0486 O   0  0  0  0  0  0  0  0  0  0  0  0
   -1.0722    0.7651   -0.8184 N   0  0  0  0  0  0  0  0  0  0  0  0
   -1.3526    0.5090   -2.2418 C   0  0  1  0  0  0  0  0  0  0  0  0
   -1.1248    1.7254   -3.1329 C   0  0  0  0  0  0  0  0  0  0  0  0
   -1.7707    1.5270   -4.4713 C   0  0  0  0  0  0  0  0  0  0  0  0
   -1.2019    1.5199   -5.5498 O   0  0  0  0  0  0  0  0  0  0  0  0
   -3.1082    1.3966   -4.3976 O   0  0  0  0  0  0  0  0  0  0  0  0
   -0.5780   -0.7100   -2.7870 C   0  0  0  0  0  0  0  0  0  0  0  0
   -1.1108   -1.5332   -3.5295 O   0  0  0  0  0  0  0  0  0  0  0  0
    0.7598   -0.7432   -2.4943 N   0  0  0  0  0  0  0  0  0  0  0  0
    1.6550   -1.7950   -2.9467 C   0  0  1  0  0  0  0  0  0  0  0  0
    2.3191   -1.3912   -4.2570 C   0  0  0  0  0  0  0  0  0  0  0  0
    2.6953   -2.0500   -1.8371 C   0  0  0  0  0  0  0  0  0  0  0  0
    2.7616   -1.3766   -0.8067 O   0  0  0  0  0  0  0  0  0  0  0  0
    3.5666   -3.0855   -2.0743 N   0  0  0  0  0  0  0  0  0  0  0  0
    4.6463   -3.4333   -1.1471 C   0  0  1  0  0  0  0  0  0  0  0  0
    5.0644   -4.8943   -1.3503 C   0  0  0  0  0  0  0  0  0  0  0  0
    5.4073   -5.1392   -2.7194 O   0  0  0  0  0  0  0  0  0  0  0  0
    5.8556   -2.4956   -1.3516 C   0  0  0  0  0  0  0  0  0  0  0  0
    6.9773   -2.9058   -1.6460 O   0  0  0  0  0  0  0  0  0  0  0  0
    5.5783   -1.1610   -1.1444 N   0  0  0  0  0  0  0  0  0  0  0  0
    6.6387   -0.1836   -1.0307 C   0  0  0  0  0  0  0  0  0  0  0  0
    7.1078   -0.0624    0.4243 C   0  0  0  0  0  0  0  0  0  0  0  0
    6.4726   -0.5063    1.3779 O   0  0  0  0  0  0  0  0  0  0  0  0
    8.2991    0.6237    0.5672 N   0  0  0  0  0  0  0  0  0  0  0  0
    8.7562    1.0392    1.8964 C   0  0  1  0  0  0  0  0  0  0  0  0
   10.2835    0.9922    1.9739 C   0  0  0  0  0  0  0  0  0  0  0  0
   10.8163   -0.4403    1.9103 C   0  0  0  0  0  0  0  0  0  0  0  0
   12.3169   -0.4680    2.0006 C   0  0  0  0  0  0  0  0  0  0  0  0
   13.0779    0.4814    1.9298 O   0  0  0  0  0  0  0  0  0  0  0  0
   12.7901   -1.7190    2.1570 O   0  0  0  0  0  0  0  0  0  0  0  0
    8.2797    2.4641    2.2089 C   0  0  0  0  0  0  0  0  0  0  0  0
    8.4080    3.0490    3.2731 O   0  0  0  0  0  0  0  0  0  0  0  0
    7.7335    3.1056    1.1497 O   0  0  0  0  0  0  0  0  0  0  0  0
   -6.7138    1.8583    0.3754 N   0  0  0  0  0  0  0  0  0  0  0  0
   -7.9273    1.9201   -0.2796 C   0  0  0  0  0  0  0  0  0  0  0  0
   -8.0219    1.8128   -1.5030 O   0  0  0  0  0  0  0  0  0  0  0  0
   -9.1635    2.2179    0.6117 C   0  0  2  0  0  0  0  0  0  0  0  0
   -9.3029    1.3277    1.8623 C   0  0  0  0  0  0  0  0  0  0  0  0
   -8.8924   -0.1068    1.6945 C   0  0  0  0  0  0  0  0  0  0  0  0
   -9.4475   -1.0353    0.8355 C   0  0  0  0  0  0  0  0  0  0  0  0
   -8.7502   -2.2073    0.9528 N   0  0  0  0  0  0  0  0  0  0  0  0
   -7.7608   -2.0787    1.8978 C   0  0  0  0  0  0  0  0  0  0  0  0
   -6.8159   -3.0107    2.3428 C   0  0  0  0  0  0  0  0  0  0  0  0
   -5.9287   -2.6079    3.3442 C   0  0  0  0  0  0  0  0  0  0  0  0
   -5.9897   -1.3253    3.8811 C   0  0  0  0  0  0  0  0  0  0  0  0
   -6.9372   -0.4039    3.4199 C   0  0  0  0  0  0  0  0  0  0  0  0
   -7.8400   -0.7810    2.4022 C   0  0  0  0  0  0  0  0  0  0  0  0
  -10.3909    2.1646   -0.2256 N   0  0  0  0  0  0  0  0  0  0  0  0
   -4.7118    3.4073   -0.6307 H   0  0  0  0  0  0  0  0  0  0  0  0
   -5.6489    2.8107   -2.0042 H   0  0  0  0  0  0  0  0  0  0  0  0
   -4.0202    2.1873   -1.7041 H   0  0  0  0  0  0  0  0  0  0  0  0
   -5.7923    0.5314   -0.9467 H   0  0  0  0  0  0  0  0  0  0  0  0
   -4.7497    2.6684    1.7478 H   0  0  0  0  0  0  0  0  0  0  0  0
   -3.5673    2.0132    3.7053 H   0  0  0  0  0  0  0  0  0  0  0  0
   -3.2276    0.4231    2.9743 H   0  0  0  0  0  0  0  0  0  0  0  0
   -1.3242    0.1593    1.9328 H   0  0  0  0  0  0  0  0  0  0  0  0
    0.9354    0.8286    1.5650 H   0  0  0  0  0  0  0  0  0  0  0  0
    0.4196    2.5346    1.4345 H   0  0  0  0  0  0  0  0  0  0  0  0
   -1.8173    0.5171   -0.1690 H   0  0  0  0  0  0  0  0  0  0  0  0
   -2.4109    0.2195   -2.2553 H   0  0  0  0  0  0  0  0  0  0  0  0
   -0.0591    1.9097   -3.3080 H   0  0  0  0  0  0  0  0  0  0  0  0
   -1.5398    2.6363   -2.6861 H   0  0  0  0  0  0  0  0  0  0  0  0
   -3.3867    1.2629   -5.3292 H   0  0  0  0  0  0  0  0  0  0  0  0
    1.1672    0.0212   -1.9538 H   0  0  0  0  0  0  0  0  0  0  0  0
    1.0779   -2.7162   -3.0878 H   0  0  0  0  0  0  0  0  0  0  0  0
    2.9502   -0.5055   -4.1211 H   0  0  0  0  0  0  0  0  0  0  0  0
    1.5694   -1.1517   -5.0189 H   0  0  0  0  0  0  0  0  0  0  0  0
    2.9532   -2.1918   -4.6504 H   0  0  0  0  0  0  0  0  0  0  0  0
    3.5994   -3.5371   -2.9828 H   0  0  0  0  0  0  0  0  0  0  0  0
    4.2948   -3.2979   -0.1171 H   0  0  0  0  0  0  0  0  0  0  0  0
    4.2298   -5.5600   -1.1064 H   0  0  0  0  0  0  0  0  0  0  0  0
    5.9156   -5.1718   -0.7195 H   0  0  0  0  0  0  0  0  0  0  0  0
    6.2738   -4.7030   -2.8569 H   0  0  0  0  0  0  0  0  0  0  0  0
    4.6959   -0.9480   -0.6750 H   0  0  0  0  0  0  0  0  0  0  0  0
    6.2352    0.7827   -1.3472 H   0  0  0  0  0  0  0  0  0  0  0  0
    7.4817   -0.4607   -1.6709 H   0  0  0  0  0  0  0  0  0  0  0  0
    8.5432    1.2517   -0.1905 H   0  0  0  0  0  0  0  0  0  0  0  0
    8.3115    0.3838    2.6540 H   0  0  0  0  0  0  0  0  0  0  0  0
   10.7195    1.5883    1.1608 H   0  0  0  0  0  0  0  0  0  0  0  0
   10.6244    1.4589    2.9076 H   0  0  0  0  0  0  0  0  0  0  0  0
   10.5278   -0.9197    0.9691 H   0  0  0  0  0  0  0  0  0  0  0  0
   10.4089   -1.0193    2.7466 H   0  0  0  0  0  0  0  0  0  0  0  0
   13.7633   -1.6077    2.1914 H   0  0  0  0  0  0  0  0  0  0  0  0
    7.4848    3.9817    1.5158 H   0  0  0  0  0  0  0  0  0  0  0  0
   -6.7498    1.5972    1.3532 H   0  0  0  0  0  0  0  0  0  0  0  0
   -9.0683    3.2599    0.9416 H   0  0  0  0  0  0  0  0  0  0  0  0
   -8.6982    1.7780    2.6601 H   0  0  0  0  0  0  0  0  0  0  0  0
  -10.3347    1.3602    2.2372 H   0  0  0  0  0  0  0  0  0  0  0  0
  -10.2723   -0.9638    0.1391 H   0  0  0  0  0  0  0  0  0  0  0  0
   -8.9356   -3.0510    0.4276 H   0  0  0  0  0  0  0  0  0  0  0  0
   -6.7716   -4.0146    1.9324 H   0  0  0  0  0  0  0  0  0  0  0  0
   -5.1868   -3.3124    3.7139 H   0  0  0  0  0  0  0  0  0  0  0  0
   -5.2998   -1.0387    4.6706 H   0  0  0  0  0  0  0  0  0  0  0  0
   -6.9761    0.5883    3.8586 H   0  0  0  0  0  0  0  0  0  0  0  0
  -10.4601    1.2179   -0.6044 H   0  0  0  0  0  0  0  0  0  0  0  0
  -10.2042    2.7289   -1.0610 H   0  0  0  0  0  0  0  0  0  0  0  0
  1  2  1  0
  2  3  1  0
  3  4  2  0
  3  5  1  0
  5  6  1  0
  6  7  1  0
  7  8  2  0
  7  9  1  0
  9 10  1  0
 10 11  1  0
 11 12  2  0
 11 13  1  0
 13 14  1  0
 14 15  1  0
 15 16  1  0
 16 17  2  0
 16 18  1  0
 14 19  1  0
 19 20  2  0
 19 21  1  0
 21 22  1  0
 22 23  1  0
 22 24  1  0
 24 25  2  0
 24 26  1  0
 26 27  1  0
 27 28  1  0
 28 29  1  0
 27 30  1  0
 30 31  2  0
 30 32  1  0
 32 33  1  0
 33 34  1  0
 34 35  2  0
 34 36  1  0
 36 37  1  0
 37 38  1  0
 38 39  1  0
 39 40  1  0
 40 41  2  0
 40 42  1  0
 37 43  1  0
 43 44  2  0
 43 45  1  0
  2 46  1  0
 46 47  1  0
 47 48  2  0
 47 49  1  0
 49 50  1  0
 50 51  1  0
 51 52  2  0
 52 53  1  0
 53 54  1  0
 54 55  2  0
 55 56  1  0
 56 57  2  0
 57 58  1  0
 58 59  2  0
 49 60  1  0
 59 51  1  0
 59 54  1  0
  1 61  1  0
  1 62  1  0
  1 63  1  0
  2 64  1  6
  5 65  1  0
  6 66  1  0
  6 67  1  0
  9 68  1  0
 10 69  1  0
 10 70  1  0
 13 71  1  0
 14 72  1  1
 15 73  1  0
 15 74  1  0
 18 75  1  0
 21 76  1  0
 22 77  1  6
 23 78  1  0
 23 79  1  0
 23 80  1  0
 26 81  1  0
 27 82  1  1
 28 83  1  0
 28 84  1  0
 29 85  1  0
 32 86  1  0
 33 87  1  0
 33 88  1  0
 36 89  1  0
 37 90  1  1
 38 91  1  0
 38 92  1  0
 39 93  1  0
 39 94  1  0
 42 95  1  0
 45 96  1  0
 46 97  1  0
 49 98  1  1
 50 99  1  0
 50100  1  0
 52101  1  0
 53102  1  0
 55103  1  0
 56104  1  0
 57105  1  0
 58106  1  0
 60107  1  0
 60108  1  0
M  END
$$$$
