
     RDKit          3D

143147  0  0  0  0  0  0  0  0999 V2000
    8.1392    0.5975    6.2771 C   0  0  0  0  0  0  0  0  0  0  0  0
    8.5864    1.3147    5.0130 C   0  0  0  0  0  0  0  0  0  0  0  0
    8.8378    0.3753    3.8325 C   0  0  0  0  0  0  0  0  0  0  0  0
    7.6368   -0.4421    3.3374 C   0  0  0  0  0  0  0  0  0  0  0  0
    6.5109    0.4002    2.7213 C   0  0  1  0  0  0  0  0  0  0  0  0
    5.6017   -0.4745    1.8314 C   0  0  0  0  0  0  0  0  0  0  0  0
    5.4464   -1.6838    1.9948 O   0  0  0  0  0  0  0  0  0  0  0  0
    4.8851    0.2345    0.8882 N   0  0  0  0  0  0  0  0  0  0  0  0
    3.8230   -0.4077    0.1258 C   0  0  1  0  0  0  0  0  0  0  0  0
    2.5796   -0.5866    0.9888 C   0  0  0  0  0  0  0  0  0  0  0  0
    1.5794   -1.4537    0.2718 C   0  0  0  0  0  0  0  0  0  0  0  0
    0.7030   -0.9711   -0.4408 O   0  0  0  0  0  0  0  0  0  0  0  0
    1.7674   -2.8010    0.4436 N   0  0  0  0  0  0  0  0  0  0  0  0
    0.8804   -3.7939   -0.1329 C   0  0  0  0  0  0  0  0  0  0  0  0
    0.0330   -4.4899    0.9313 C   0  0  0  0  0  0  0  0  0  0  0  0
   -1.0297   -3.6027    1.6012 C   0  0  0  0  0  0  0  0  0  0  0  0
   -2.4640   -3.9082    1.1427 C   0  0  0  0  0  0  0  0  0  0  0  0
   -2.8518   -3.2452   -0.1879 C   0  0  2  0  0  0  0  0  0  0  0  0
   -3.1360   -1.8136   -0.0935 N   0  0  0  0  0  0  0  0  0  0  0  0
   -4.1045   -1.2615    0.7231 C   0  0  0  0  0  0  0  0  0  0  0  0
   -4.8842   -1.9527    1.3788 O   0  0  0  0  0  0  0  0  0  0  0  0
   -4.2582    0.2735    0.6054 C   0  0  1  0  0  0  0  0  0  0  0  0
   -2.9470    0.8947    0.3764 N   0  0  0  0  0  0  0  0  0  0  0  0
   -1.9697    0.9240    1.3504 C   0  0  0  0  0  0  0  0  0  0  0  0
   -2.1168    0.3769    2.4414 O   0  0  0  0  0  0  0  0  0  0  0  0
   -0.7143    1.7593    0.9841 C   0  0  1  0  0  0  0  0  0  0  0  0
   -0.3285    1.5341   -0.4206 N   0  0  0  0  0  0  0  0  0  0  0  0
   -0.9800    2.0437   -1.5231 C   0  0  0  0  0  0  0  0  0  0  0  0
   -1.9447    2.7961   -1.4118 O   0  0  0  0  0  0  0  0  0  0  0  0
   -0.5204    1.4025   -2.8500 C   0  0  2  0  0  0  0  0  0  0  0  0
    0.9427    1.3781   -2.9008 N   0  0  0  0  0  0  0  0  0  0  0  0
    1.6176    0.4946   -3.7150 C   0  0  0  0  0  0  0  0  0  0  0  0
    1.0379   -0.2736   -4.4824 O   0  0  0  0  0  0  0  0  0  0  0  0
    3.1522    0.5208   -3.5483 C   0  0  1  0  0  0  0  0  0  0  0  0
    3.4748   -0.1802   -2.2984 N   0  0  0  0  0  0  0  0  0  0  0  0
    3.4878    0.4788   -1.0880 C   0  0  0  0  0  0  0  0  0  0  0  0
    3.2418    1.6794   -0.9947 O   0  0  0  0  0  0  0  0  0  0  0  0
    3.8582   -0.1599   -4.7322 C   0  0  0  0  0  0  0  0  0  0  0  0
    3.7235    0.5997   -6.0071 C   0  0  0  0  0  0  0  0  0  0  0  0
    4.5715    1.4550   -6.6755 C   0  0  0  0  0  0  0  0  0  0  0  0
    3.9879    1.9198   -7.8249 N   0  0  0  0  0  0  0  0  0  0  0  0
    2.8019    1.3578   -7.8676 C   0  0  0  0  0  0  0  0  0  0  0  0
    2.5963    0.5423   -6.7933 N   0  0  0  0  0  0  0  0  0  0  0  0
   -1.1456    2.0904   -4.0746 C   0  0  0  0  0  0  0  0  0  0  0  0
   -2.5568    1.6072   -4.3390 C   0  0  0  0  0  0  0  0  0  0  0  0
   -2.7779    0.3220   -4.8560 C   0  0  0  0  0  0  0  0  0  0  0  0
   -4.0768   -0.1450   -5.0612 C   0  0  0  0  0  0  0  0  0  0  0  0
   -5.1666    0.6684   -4.7580 C   0  0  0  0  0  0  0  0  0  0  0  0
   -4.9586    1.9496   -4.2516 C   0  0  0  0  0  0  0  0  0  0  0  0
   -3.6602    2.4178   -4.0433 C   0  0  0  0  0  0  0  0  0  0  0  0
   -0.8513    3.2436    1.3398 C   0  0  0  0  0  0  0  0  0  0  0  0
   -0.8964    3.5586    2.8429 C   0  0  0  0  0  0  0  0  0  0  0  0
    0.4036    3.2770    3.6032 C   0  0  0  0  0  0  0  0  0  0  0  0
    0.6226    1.8426    3.7577 N   0  0  0  0  0  0  0  0  0  0  0  0
    0.0391    1.2106    4.7058 C   0  0  0  0  0  0  0  0  0  0  0  0
   -0.7744    1.6702    5.6788 N   0  0  0  0  0  0  0  0  0  0  0  0
    0.2217   -0.1253    4.8056 N   0  0  0  0  0  0  0  0  0  0  0  0
   -5.1840    0.6127   -0.5752 C   0  0  0  0  0  0  0  0  0  0  0  0
   -6.5800    0.0915   -0.4449 C   0  0  0  0  0  0  0  0  0  0  0  0
   -7.5567    0.5578    0.4131 C   0  0  0  0  0  0  0  0  0  0  0  0
   -8.6844   -0.1969    0.2303 N   0  0  0  0  0  0  0  0  0  0  0  0
   -8.4727   -1.1442   -0.7435 C   0  0  0  0  0  0  0  0  0  0  0  0
   -9.3352   -2.1219   -1.2548 C   0  0  0  0  0  0  0  0  0  0  0  0
   -8.8415   -2.9635   -2.2562 C   0  0  0  0  0  0  0  0  0  0  0  0
   -7.5382   -2.8291   -2.7265 C   0  0  0  0  0  0  0  0  0  0  0  0
   -6.6910   -1.8450   -2.2049 C   0  0  0  0  0  0  0  0  0  0  0  0
   -7.1617   -0.9846   -1.1916 C   0  0  0  0  0  0  0  0  0  0  0  0
   -4.0114   -3.9779   -0.8960 C   0  0  0  0  0  0  0  0  0  0  0  0
   -3.9560   -4.3300   -2.0725 O   0  0  0  0  0  0  0  0  0  0  0  0
   -5.1407   -4.1856   -0.1563 N   0  0  0  0  0  0  0  0  0  0  0  0
    5.6569    0.9903    3.7498 N   0  0  0  0  0  0  0  0  0  0  0  0
    4.9014    2.1102    3.4881 C   0  0  0  0  0  0  0  0  0  0  0  0
    4.9236    2.6889    2.4067 O   0  0  0  0  0  0  0  0  0  0  0  0
    4.0437    2.5424    4.6432 C   0  0  0  0  0  0  0  0  0  0  0  0
    7.1588    0.1297    6.1528 H   0  0  0  0  0  0  0  0  0  0  0  0
    8.8574   -0.1776    6.5626 H   0  0  0  0  0  0  0  0  0  0  0  0
    8.0636    1.3094    7.1053 H   0  0  0  0  0  0  0  0  0  0  0  0
    7.8583    2.0867    4.7452 H   0  0  0  0  0  0  0  0  0  0  0  0
    9.5221    1.8440    5.2321 H   0  0  0  0  0  0  0  0  0  0  0  0
    9.2324    0.9660    2.9963 H   0  0  0  0  0  0  0  0  0  0  0  0
    9.6348   -0.3261    4.1110 H   0  0  0  0  0  0  0  0  0  0  0  0
    7.2508   -1.0781    4.1431 H   0  0  0  0  0  0  0  0  0  0  0  0
    8.0192   -1.1297    2.5709 H   0  0  0  0  0  0  0  0  0  0  0  0
    6.9370    1.1945    2.0962 H   0  0  0  0  0  0  0  0  0  0  0  0
    4.8409    1.2538    1.0001 H   0  0  0  0  0  0  0  0  0  0  0  0
    4.1989   -1.3778   -0.2215 H   0  0  0  0  0  0  0  0  0  0  0  0
    2.1145    0.3764    1.2213 H   0  0  0  0  0  0  0  0  0  0  0  0
    2.8179   -1.0479    1.9546 H   0  0  0  0  0  0  0  0  0  0  0  0
    2.5037   -3.1264    1.0636 H   0  0  0  0  0  0  0  0  0  0  0  0
    1.5270   -4.5337   -0.6171 H   0  0  0  0  0  0  0  0  0  0  0  0
    0.2539   -3.3437   -0.9075 H   0  0  0  0  0  0  0  0  0  0  0  0
   -0.4363   -5.3743    0.4849 H   0  0  0  0  0  0  0  0  0  0  0  0
    0.7077   -4.8632    1.7132 H   0  0  0  0  0  0  0  0  0  0  0  0
   -0.8078   -2.5361    1.4957 H   0  0  0  0  0  0  0  0  0  0  0  0
   -0.9918   -3.8149    2.6781 H   0  0  0  0  0  0  0  0  0  0  0  0
   -3.1436   -3.5877    1.9399 H   0  0  0  0  0  0  0  0  0  0  0  0
   -2.5929   -4.9957    1.0707 H   0  0  0  0  0  0  0  0  0  0  0  0
   -2.0060   -3.3270   -0.8795 H   0  0  0  0  0  0  0  0  0  0  0  0
   -2.4670   -1.1669   -0.4964 H   0  0  0  0  0  0  0  0  0  0  0  0
   -4.6502    0.6531    1.5561 H   0  0  0  0  0  0  0  0  0  0  0  0
   -2.9211    1.6884   -0.2662 H   0  0  0  0  0  0  0  0  0  0  0  0
    0.1152    1.3119    1.5294 H   0  0  0  0  0  0  0  0  0  0  0  0
    0.1794    0.6630   -0.5866 H   0  0  0  0  0  0  0  0  0  0  0  0
   -0.8424    0.3530   -2.8052 H   0  0  0  0  0  0  0  0  0  0  0  0
    1.4737    1.8910   -2.1939 H   0  0  0  0  0  0  0  0  0  0  0  0
    3.4754    1.5666   -3.4711 H   0  0  0  0  0  0  0  0  0  0  0  0
    3.3650   -1.1879   -2.2963 H   0  0  0  0  0  0  0  0  0  0  0  0
    4.9263   -0.2654   -4.4996 H   0  0  0  0  0  0  0  0  0  0  0  0
    3.4807   -1.1815   -4.8721 H   0  0  0  0  0  0  0  0  0  0  0  0
    5.5694    1.7645   -6.3912 H   0  0  0  0  0  0  0  0  0  0  0  0
    2.0572    1.5024   -8.6389 H   0  0  0  0  0  0  0  0  0  0  0  0
    1.7502    0.0216   -6.5862 H   0  0  0  0  0  0  0  0  0  0  0  0
   -1.1334    3.1812   -3.9529 H   0  0  0  0  0  0  0  0  0  0  0  0
   -0.5554    1.8923   -4.9787 H   0  0  0  0  0  0  0  0  0  0  0  0
   -1.9368   -0.3269   -5.0951 H   0  0  0  0  0  0  0  0  0  0  0  0
   -4.2388   -1.1456   -5.4543 H   0  0  0  0  0  0  0  0  0  0  0  0
   -6.1789    0.3024   -4.9114 H   0  0  0  0  0  0  0  0  0  0  0  0
   -5.8092    2.5822   -4.0114 H   0  0  0  0  0  0  0  0  0  0  0  0
   -3.5160    3.4157   -3.6335 H   0  0  0  0  0  0  0  0  0  0  0  0
   -0.0229    3.8053    0.8893 H   0  0  0  0  0  0  0  0  0  0  0  0
   -1.7720    3.6466    0.9015 H   0  0  0  0  0  0  0  0  0  0  0  0
   -1.7404    3.0347    3.3047 H   0  0  0  0  0  0  0  0  0  0  0  0
   -1.1096    4.6306    2.9433 H   0  0  0  0  0  0  0  0  0  0  0  0
    1.2522    3.7016    3.0549 H   0  0  0  0  0  0  0  0  0  0  0  0
    0.3916    3.7842    4.5754 H   0  0  0  0  0  0  0  0  0  0  0  0
   -1.1876    2.5789    5.5242 H   0  0  0  0  0  0  0  0  0  0  0  0
   -1.4304    1.0025    6.0586 H   0  0  0  0  0  0  0  0  0  0  0  0
    0.7390   -0.4429    3.9939 H   0  0  0  0  0  0  0  0  0  0  0  0
   -0.6582   -0.6280    4.8350 H   0  0  0  0  0  0  0  0  0  0  0  0
   -5.2367    1.7044   -0.6886 H   0  0  0  0  0  0  0  0  0  0  0  0
   -4.7387    0.2432   -1.5077 H   0  0  0  0  0  0  0  0  0  0  0  0
   -7.5435    1.3550    1.1442 H   0  0  0  0  0  0  0  0  0  0  0  0
   -9.5514   -0.0813    0.7359 H   0  0  0  0  0  0  0  0  0  0  0  0
  -10.3516   -2.2288   -0.8906 H   0  0  0  0  0  0  0  0  0  0  0  0
   -9.4858   -3.7339   -2.6736 H   0  0  0  0  0  0  0  0  0  0  0  0
   -7.1671   -3.4950   -3.5023 H   0  0  0  0  0  0  0  0  0  0  0  0
   -5.6738   -1.7599   -2.5774 H   0  0  0  0  0  0  0  0  0  0  0  0
   -5.9588   -4.4545   -0.6876 H   0  0  0  0  0  0  0  0  0  0  0  0
   -5.3270   -3.5076    0.5873 H   0  0  0  0  0  0  0  0  0  0  0  0
    5.3600    0.3959    4.5149 H   0  0  0  0  0  0  0  0  0  0  0  0
    3.3185    1.7598    4.8794 H   0  0  0  0  0  0  0  0  0  0  0  0
    3.5100    3.4597    4.3812 H   0  0  0  0  0  0  0  0  0  0  0  0
    4.6715    2.7393    5.5167 H   0  0  0  0  0  0  0  0  0  0  0  0
  1  2  1  0
  2  3  1  0
  3  4  1  0
  4  5  1  0
  5  6  1  0
  6  7  2  0
  6  8  1  0
  8  9  1  0
  9 10  1  0
 10 11  1  0
 11 12  2  0
 11 13  1  0
 13 14  1  0
 14 15  1  0
 15 16  1  0
 16 17  1  0
 17 18  1  0
 18 19  1  0
 19 20  1  0
 20 21  2  0
 20 22  1  0
 22 23  1  0
 23 24  1  0
 24 25  2  0
 24 26  1  0
 26 27  1  0
 27 28  1  0
 28 29  2  0
 28 30  1  0
 30 31  1  0
 31 32  1  0
 32 33  2  0
 32 34  1  0
 34 35  1  0
 35 36  1  0
 36 37  2  0
 34 38  1  0
 38 39  1  0
 39 40  2  0
 40 41  1  0
 41 42  2  0
 42 43  1  0
 30 44  1  0
 44 45  1  0
 45 46  2  0
 46 47  1  0
 47 48  2  0
 48 49  1  0
 49 50  2  0
 26 51  1  0
 51 52  1  0
 52 53  1  0
 53 54  1  0
 54 55  2  3
 55 56  1  0
 55 57  1  0
 22 58  1  0
 58 59  1  0
 59 60  2  0
 60 61  1  0
 61 62  1  0
 62 63  2  0
 63 64  1  0
 64 65  2  0
 65 66  1  0
 66 67  2  0
 18 68  1  0
 68 69  2  0
 68 70  1  0
  5 71  1  0
 71 72  1  0
 72 73  2  0
 72 74  1  0
 36  9  1  0
 43 39  1  0
 50 45  1  0
 67 59  1  0
 67 62  1  0
  1 75  1  0
  1 76  1  0
  1 77  1  0
  2 78  1  0
  2 79  1  0
  3 80  1  0
  3 81  1  0
  4 82  1  0
  4 83  1  0
  5 84  1  6
  8 85  1  0
  9 86  1  6
 10 87  1  0
 10 88  1  0
 13 89  1  0
 14 90  1  0
 14 91  1  0
 15 92  1  0
 15 93  1  0
 16 94  1  0
 16 95  1  0
 17 96  1  0
 17 97  1  0
 18 98  1  6
 19 99  1  0
 22100  1  1
 23101  1  0
 26102  1  1
 27103  1  0
 30104  1  1
 31105  1  0
 34106  1  1
 35107  1  0
 38108  1  0
 38109  1  0
 40110  1  0
 42111  1  0
 43112  1  0
 44113  1  0
 44114  1  0
 46115  1  0
 47116  1  0
 48117  1  0
 49118  1  0
 50119  1  0
 51120  1  0
 51121  1  0
 52122  1  0
 52123  1  0
 53124  1  0
 53125  1  0
 56126  1  0
 56127  1  0
 57128  1  0
 57129  1  0
 58130  1  0
 58131  1  0
 60132  1  0
 61133  1  0
 63134  1  0
 64135  1  0
 65136  1  0
 66137  1  0
 70138  1  0
 70139  1  0
 71140  1  0
 74141  1  0
 74142  1  0
 74143  1  0
M  END
$$$$
