
     RDKit          3D

108111  0  0  0  0  0  0  0  0999 V2000
   10.3276    2.9948    2.6601 C   0  0  0  0  0  0  0  0  0  0  0  0
    9.7927    1.6167    3.7064 S   0  0  0  0  0  0  0  0  0  0  0  0
    8.5530    0.8671    2.5973 C   0  0  0  0  0  0  0  0  0  0  0  0
    9.2012    0.1097    1.4364 C   0  0  0  0  0  0  0  0  0  0  0  0
    8.1465   -0.5627    0.5459 C   0  0  1  0  0  0  0  0  0  0  0  0
    7.3057    0.4697   -0.2421 C   0  0  0  0  0  0  0  0  0  0  0  0
    7.5983    1.6564   -0.3434 O   0  0  0  0  0  0  0  0  0  0  0  0
    6.1967   -0.0874   -0.8470 N   0  0  0  0  0  0  0  0  0  0  0  0
    5.4151    0.6520   -1.8416 C   0  0  1  0  0  0  0  0  0  0  0  0
    6.0819    0.5903   -3.2313 C   0  0  0  0  0  0  0  0  0  0  0  0
    5.7874   -0.6403   -4.1025 C   0  0  0  0  0  0  0  0  0  0  0  0
    5.9944   -1.9771   -3.4374 C   0  0  0  0  0  0  0  0  0  0  0  0
    6.5630   -2.1860   -2.3766 O   0  0  0  0  0  0  0  0  0  0  0  0
    5.4276   -2.9676   -4.1510 O   0  0  0  0  0  0  0  0  0  0  0  0
    3.9459    0.1753   -1.8665 C   0  0  0  0  0  0  0  0  0  0  0  0
    3.1434    0.5288   -2.7256 O   0  0  0  0  0  0  0  0  0  0  0  0
    3.6134   -0.6658   -0.8265 N   0  0  0  0  0  0  0  0  0  0  0  0
    2.2439   -1.1270   -0.6111 C   0  0  1  0  0  0  0  0  0  0  0  0
    2.2035   -2.5974   -0.1611 C   0  0  0  0  0  0  0  0  0  0  0  0
    2.8091   -3.5149   -1.1729 C   0  0  0  0  0  0  0  0  0  0  0  0
    4.0755   -4.0467   -1.2846 C   0  0  0  0  0  0  0  0  0  0  0  0
    4.2055   -4.7632   -2.4498 N   0  0  0  0  0  0  0  0  0  0  0  0
    3.0085   -4.7479   -2.9955 C   0  0  0  0  0  0  0  0  0  0  0  0
    2.1317   -3.9949   -2.2663 N   0  0  0  0  0  0  0  0  0  0  0  0
    1.6063   -0.2435    0.4739 C   0  0  0  0  0  0  0  0  0  0  0  0
    2.2725    0.4191    1.2680 O   0  0  0  0  0  0  0  0  0  0  0  0
    0.2353   -0.2974    0.5202 N   0  0  0  0  0  0  0  0  0  0  0  0
   -0.5467    0.6072    1.3647 C   0  0  1  0  0  0  0  0  0  0  0  0
   -0.6201    2.0383    0.7927 C   0  0  0  0  0  0  0  0  0  0  0  0
   -0.9612    2.1128   -0.6810 C   0  0  0  0  0  0  0  0  0  0  0  0
   -2.2942    2.0942   -1.1098 C   0  0  0  0  0  0  0  0  0  0  0  0
   -2.5998    2.1261   -2.4716 C   0  0  0  0  0  0  0  0  0  0  0  0
   -1.5779    2.1762   -3.4177 C   0  0  0  0  0  0  0  0  0  0  0  0
   -0.2486    2.2001   -3.0028 C   0  0  0  0  0  0  0  0  0  0  0  0
    0.0585    2.1740   -1.6421 C   0  0  0  0  0  0  0  0  0  0  0  0
   -1.9476   -0.0125    1.5420 C   0  0  0  0  0  0  0  0  0  0  0  0
   -2.3912   -0.8231    0.7208 O   0  0  0  0  0  0  0  0  0  0  0  0
   -2.6904    0.3780    2.6340 N   0  0  0  0  0  0  0  0  0  0  0  0
   -2.2285    1.1254    3.7930 C   0  0  0  0  0  0  0  0  0  0  0  0
   -3.4681    1.3030    4.6572 C   0  0  0  0  0  0  0  0  0  0  0  0
   -4.2987    0.0643    4.3320 C   0  0  0  0  0  0  0  0  0  0  0  0
   -4.0400   -0.1418    2.8389 C   0  0  1  0  0  0  0  0  0  0  0  0
   -5.0728    0.6355    1.9959 C   0  0  0  0  0  0  0  0  0  0  0  0
   -4.8597    1.7441    1.5080 O   0  0  0  0  0  0  0  0  0  0  0  0
   -6.2952    0.0129    1.8933 N   0  0  0  0  0  0  0  0  0  0  0  0
   -7.3556    0.5763    1.0805 C   0  0  0  0  0  0  0  0  0  0  0  0
   -8.5853   -0.3323    1.1331 C   0  0  0  0  0  0  0  0  0  0  0  0
   -8.5551   -1.4176    1.7199 O   0  0  0  0  0  0  0  0  0  0  0  0
   -9.7109    0.1151    0.4819 N   0  0  0  0  0  0  0  0  0  0  0  0
   -9.8872    1.4016   -0.1697 C   0  0  0  0  0  0  0  0  0  0  0  0
  -11.2571    1.3140   -0.8254 C   0  0  0  0  0  0  0  0  0  0  0  0
  -12.0150    0.3436    0.0778 C   0  0  0  0  0  0  0  0  0  0  0  0
  -10.9439   -0.6745    0.4720 C   0  0  1  0  0  0  0  0  0  0  0  0
  -10.9307   -1.8377   -0.5273 C   0  0  0  0  0  0  0  0  0  0  0  0
  -11.8260   -2.6586   -0.6688 O   0  0  0  0  0  0  0  0  0  0  0  0
   -9.8482   -1.8836   -1.3322 O   0  0  0  0  0  0  0  0  0  0  0  0
    8.8243   -1.4576   -0.4158 N   0  0  0  0  0  0  0  0  0  0  0  0
   11.0093    3.6305    3.2316 H   0  0  0  0  0  0  0  0  0  0  0  0
    9.4699    3.5984    2.3522 H   0  0  0  0  0  0  0  0  0  0  0  0
   10.8602    2.6300    1.7789 H   0  0  0  0  0  0  0  0  0  0  0  0
    7.9614    0.1712    3.2021 H   0  0  0  0  0  0  0  0  0  0  0  0
    7.8722    1.6507    2.2525 H   0  0  0  0  0  0  0  0  0  0  0  0
    9.8713   -0.6596    1.8434 H   0  0  0  0  0  0  0  0  0  0  0  0
    9.8180    0.7868    0.8330 H   0  0  0  0  0  0  0  0  0  0  0  0
    7.4689   -1.1642    1.1634 H   0  0  0  0  0  0  0  0  0  0  0  0
    6.2235   -1.0985   -0.9795 H   0  0  0  0  0  0  0  0  0  0  0  0
    5.3901    1.6993   -1.5150 H   0  0  0  0  0  0  0  0  0  0  0  0
    7.1693    0.6894   -3.1200 H   0  0  0  0  0  0  0  0  0  0  0  0
    5.7549    1.4688   -3.8033 H   0  0  0  0  0  0  0  0  0  0  0  0
    4.7491   -0.5932   -4.4497 H   0  0  0  0  0  0  0  0  0  0  0  0
    6.4311   -0.6077   -4.9891 H   0  0  0  0  0  0  0  0  0  0  0  0
    5.3684   -3.7579   -3.5545 H   0  0  0  0  0  0  0  0  0  0  0  0
    4.1943   -0.5650    0.0016 H   0  0  0  0  0  0  0  0  0  0  0  0
    1.6737   -1.0009   -1.5394 H   0  0  0  0  0  0  0  0  0  0  0  0
    2.7400   -2.7111    0.7904 H   0  0  0  0  0  0  0  0  0  0  0  0
    1.1685   -2.9058    0.0334 H   0  0  0  0  0  0  0  0  0  0  0  0
    4.9144   -3.9160   -0.6112 H   0  0  0  0  0  0  0  0  0  0  0  0
    2.7229   -5.2394   -3.9167 H   0  0  0  0  0  0  0  0  0  0  0  0
    1.1660   -3.8170   -2.5094 H   0  0  0  0  0  0  0  0  0  0  0  0
   -0.2823   -0.6902   -0.2615 H   0  0  0  0  0  0  0  0  0  0  0  0
   -0.0557    0.6373    2.3438 H   0  0  0  0  0  0  0  0  0  0  0  0
    0.3486    2.5325    0.9455 H   0  0  0  0  0  0  0  0  0  0  0  0
   -1.3465    2.6445    1.3466 H   0  0  0  0  0  0  0  0  0  0  0  0
   -3.1079    2.0523   -0.3882 H   0  0  0  0  0  0  0  0  0  0  0  0
   -3.6383    2.1101   -2.7913 H   0  0  0  0  0  0  0  0  0  0  0  0
   -1.8170    2.1997   -4.4773 H   0  0  0  0  0  0  0  0  0  0  0  0
    0.5544    2.2375   -3.7353 H   0  0  0  0  0  0  0  0  0  0  0  0
    1.1043    2.1958   -1.3410 H   0  0  0  0  0  0  0  0  0  0  0  0
   -1.4731    0.5192    4.3048 H   0  0  0  0  0  0  0  0  0  0  0  0
   -1.7814    2.0782    3.5017 H   0  0  0  0  0  0  0  0  0  0  0  0
   -4.0119    2.2060    4.3549 H   0  0  0  0  0  0  0  0  0  0  0  0
   -3.2297    1.3892    5.7209 H   0  0  0  0  0  0  0  0  0  0  0  0
   -3.9104   -0.7915    4.8977 H   0  0  0  0  0  0  0  0  0  0  0  0
   -5.3536    0.1961    4.5896 H   0  0  0  0  0  0  0  0  0  0  0  0
   -4.0852   -1.2016    2.5628 H   0  0  0  0  0  0  0  0  0  0  0  0
   -6.4062   -0.9595    2.1673 H   0  0  0  0  0  0  0  0  0  0  0  0
   -6.9977    0.6525    0.0491 H   0  0  0  0  0  0  0  0  0  0  0  0
   -7.5966    1.5702    1.4688 H   0  0  0  0  0  0  0  0  0  0  0  0
   -9.8638    2.1778    0.6027 H   0  0  0  0  0  0  0  0  0  0  0  0
   -9.0849    1.5878   -0.8890 H   0  0  0  0  0  0  0  0  0  0  0  0
  -11.7457    2.2886   -0.9094 H   0  0  0  0  0  0  0  0  0  0  0  0
  -11.1658    0.8902   -1.8327 H   0  0  0  0  0  0  0  0  0  0  0  0
  -12.8836   -0.0937   -0.4234 H   0  0  0  0  0  0  0  0  0  0  0  0
  -12.3660    0.8773    0.9697 H   0  0  0  0  0  0  0  0  0  0  0  0
  -11.1167   -1.0981    1.4674 H   0  0  0  0  0  0  0  0  0  0  0  0
   -9.9904   -2.6873   -1.8738 H   0  0  0  0  0  0  0  0  0  0  0  0
    8.1433   -1.8704   -1.0619 H   0  0  0  0  0  0  0  0  0  0  0  0
    9.4496   -0.9027   -1.0019 H   0  0  0  0  0  0  0  0  0  0  0  0
  1  2  1  0
  2  3  1  0
  3  4  1  0
  4  5  1  0
  5  6  1  0
  6  7  2  0
  6  8  1  0
  8  9  1  0
  9 10  1  0
 10 11  1  0
 11 12  1  0
 12 13  2  0
 12 14  1  0
  9 15  1  0
 15 16  2  0
 15 17  1  0
 17 18  1  0
 18 19  1  0
 19 20  1  0
 20 21  2  0
 21 22  1  0
 22 23  2  0
 23 24  1  0
 18 25  1  0
 25 26  2  0
 25 27  1  0
 27 28  1  0
 28 29  1  0
 29 30  1  0
 30 31  2  0
 31 32  1  0
 32 33  2  0
 33 34  1  0
 34 35  2  0
 28 36  1  0
 36 37  2  0
 36 38  1  0
 38 39  1  0
 39 40  1  0
 40 41  1  0
 41 42  1  0
 42 43  1  0
 43 44  2  0
 43 45  1  0
 45 46  1  0
 46 47  1  0
 47 48  2  0
 47 49  1  0
 49 50  1  0
 50 51  1  0
 51 52  1  0
 52 53  1  0
 53 54  1  0
 54 55  2  0
 54 56  1  0
  5 57  1  0
 24 20  1  0
 35 30  1  0
 42 38  1  0
 53 49  1  0
  1 58  1  0
  1 59  1  0
  1 60  1  0
  3 61  1  0
  3 62  1  0
  4 63  1  0
  4 64  1  0
  5 65  1  1
  8 66  1  0
  9 67  1  1
 10 68  1  0
 10 69  1  0
 11 70  1  0
 11 71  1  0
 14 72  1  0
 17 73  1  0
 18 74  1  6
 19 75  1  0
 19 76  1  0
 21 77  1  0
 23 78  1  0
 24 79  1  0
 27 80  1  0
 28 81  1  1
 29 82  1  0
 29 83  1  0
 31 84  1  0
 32 85  1  0
 33 86  1  0
 34 87  1  0
 35 88  1  0
 39 89  1  0
 39 90  1  0
 40 91  1  0
 40 92  1  0
 41 93  1  0
 41 94  1  0
 42 95  1  1
 45 96  1  0
 46 97  1  0
 46 98  1  0
 50 99  1  0
 50100  1  0
 51101  1  0
 51102  1  0
 52103  1  0
 52104  1  0
 53105  1  1
 56106  1  0
 57107  1  0
 57108  1  0
M  END
$$$$
