
     RDKit          3D

110112  0  0  0  0  0  0  0  0999 V2000
    9.3404    2.6980    0.4955 C   0  0  0  0  0  0  0  0  0  0  0  0
    8.9774    2.3415    1.9301 C   0  0  2  0  0  0  0  0  0  0  0  0
    7.4732    2.0523    2.1063 C   0  0  1  0  0  0  0  0  0  0  0  0
    7.0509    0.7289    1.4417 C   0  0  0  0  0  0  0  0  0  0  0  0
    7.8397   -0.1797    1.2107 O   0  0  0  0  0  0  0  0  0  0  0  0
    5.6869    0.6708    1.2024 N   0  0  0  0  0  0  0  0  0  0  0  0
    4.9335   -0.5818    1.0651 C   0  0  1  0  0  0  0  0  0  0  0  0
    5.5838   -1.6865    0.2190 C   0  0  0  0  0  0  0  0  0  0  0  0
    5.8237   -1.2509   -1.2299 C   0  0  0  0  0  0  0  0  0  0  0  0
    6.4767   -2.3698   -2.0449 C   0  0  0  0  0  0  0  0  0  0  0  0
    6.6990   -1.9386   -3.4942 C   0  0  0  0  0  0  0  0  0  0  0  0
    7.3265   -3.0038   -4.2686 N   0  0  0  0  0  0  0  0  0  0  0  0
    4.5835   -1.0808    2.4925 C   0  0  0  0  0  0  0  0  0  0  0  0
    5.2998   -0.7929    3.4584 O   0  0  0  0  0  0  0  0  0  0  0  0
    3.4516   -1.8516    2.6602 N   0  0  0  0  0  0  0  0  0  0  0  0
    3.1078   -2.3717    3.9737 C   0  0  0  0  0  0  0  0  0  0  0  0
    1.7020   -2.9315    3.8247 C   0  0  0  0  0  0  0  0  0  0  0  0
    1.6286   -3.3005    2.3469 C   0  0  0  0  0  0  0  0  0  0  0  0
    2.4148   -2.1726    1.6729 C   0  0  1  0  0  0  0  0  0  0  0  0
    1.5118   -0.9510    1.3703 C   0  0  0  0  0  0  0  0  0  0  0  0
    1.6787    0.1510    1.8888 O   0  0  0  0  0  0  0  0  0  0  0  0
    0.5482   -1.1807    0.4063 N   0  0  0  0  0  0  0  0  0  0  0  0
   -0.5272   -0.2084    0.2077 C   0  0  1  0  0  0  0  0  0  0  0  0
   -1.0073   -0.2164   -1.2484 C   0  0  0  0  0  0  0  0  0  0  0  0
   -0.3080    0.8590   -2.0878 C   0  0  0  0  0  0  0  0  0  0  0  0
   -1.0145    1.0815   -3.4263 C   0  0  0  0  0  0  0  0  0  0  0  0
   -2.3638    1.5703   -3.1527 N   0  0  0  0  0  0  0  0  0  0  0  0
   -3.1471    1.7962   -4.1374 C   0  0  0  0  0  0  0  0  0  0  0  0
   -2.9144    1.6799   -5.4643 N   0  0  0  0  0  0  0  0  0  0  0  0
   -4.4157    2.2109   -3.9331 N   0  0  0  0  0  0  0  0  0  0  0  0
   -1.7068   -0.6063    1.1271 C   0  0  0  0  0  0  0  0  0  0  0  0
   -1.8231   -1.7646    1.5381 O   0  0  0  0  0  0  0  0  0  0  0  0
   -2.6587    0.3608    1.3850 N   0  0  0  0  0  0  0  0  0  0  0  0
   -2.5008    1.7951    1.1747 C   0  0  0  0  0  0  0  0  0  0  0  0
   -3.8008    2.4032    1.6755 C   0  0  0  0  0  0  0  0  0  0  0  0
   -4.2268    1.4396    2.7787 C   0  0  0  0  0  0  0  0  0  0  0  0
   -3.8289    0.0697    2.2231 C   0  0  1  0  0  0  0  0  0  0  0  0
   -5.0098   -0.5377    1.4301 C   0  0  0  0  0  0  0  0  0  0  0  0
   -6.0603   -0.8758    1.9743 O   0  0  0  0  0  0  0  0  0  0  0  0
   -4.8338   -0.5970    0.0647 N   0  0  0  0  0  0  0  0  0  0  0  0
   -5.9449   -0.8746   -0.8221 C   0  0  0  0  0  0  0  0  0  0  0  0
   -6.5733    0.4653   -1.2247 C   0  0  0  0  0  0  0  0  0  0  0  0
   -5.8562    1.3789   -1.6536 O   0  0  0  0  0  0  0  0  0  0  0  0
   -7.9331    0.6303   -1.0935 N   0  0  0  0  0  0  0  0  0  0  0  0
   -8.5588    1.8953   -1.4328 C   0  0  0  0  0  0  0  0  0  0  0  0
  -10.0461    1.6483   -1.2532 C   0  0  0  0  0  0  0  0  0  0  0  0
  -10.0828    0.6295   -0.1194 C   0  0  0  0  0  0  0  0  0  0  0  0
   -8.8777   -0.2711   -0.4135 C   0  0  1  0  0  0  0  0  0  0  0  0
   -9.2440   -1.4574   -1.3134 C   0  0  0  0  0  0  0  0  0  0  0  0
   -8.6212   -1.8492   -2.2895 O   0  0  0  0  0  0  0  0  0  0  0  0
  -10.3228   -2.1437   -0.8865 O   0  0  0  0  0  0  0  0  0  0  0  0
    7.1661    1.9630    3.5670 N   0  0  0  0  0  0  0  0  0  0  0  0
    9.3319    3.4583    2.7625 O   0  0  0  0  0  0  0  0  0  0  0  0
    9.1301    1.8755   -0.1941 H   0  0  0  0  0  0  0  0  0  0  0  0
   10.4050    2.9461    0.4236 H   0  0  0  0  0  0  0  0  0  0  0  0
    8.7902    3.5847    0.1617 H   0  0  0  0  0  0  0  0  0  0  0  0
    9.5838    1.4893    2.2587 H   0  0  0  0  0  0  0  0  0  0  0  0
    6.8848    2.8808    1.6947 H   0  0  0  0  0  0  0  0  0  0  0  0
    5.1493    1.4180    1.6272 H   0  0  0  0  0  0  0  0  0  0  0  0
    4.0042   -0.2717    0.5781 H   0  0  0  0  0  0  0  0  0  0  0  0
    4.9414   -2.5739    0.2113 H   0  0  0  0  0  0  0  0  0  0  0  0
    6.5180   -2.0322    0.6740 H   0  0  0  0  0  0  0  0  0  0  0  0
    6.4656   -0.3633   -1.2595 H   0  0  0  0  0  0  0  0  0  0  0  0
    4.8671   -0.9727   -1.6888 H   0  0  0  0  0  0  0  0  0  0  0  0
    5.8394   -3.2626   -2.0166 H   0  0  0  0  0  0  0  0  0  0  0  0
    7.4357   -2.6425   -1.5867 H   0  0  0  0  0  0  0  0  0  0  0  0
    7.3352   -1.0478   -3.5336 H   0  0  0  0  0  0  0  0  0  0  0  0
    5.7431   -1.6778   -3.9614 H   0  0  0  0  0  0  0  0  0  0  0  0
    8.2338   -3.2275   -3.8591 H   0  0  0  0  0  0  0  0  0  0  0  0
    6.7720   -3.8555   -4.1950 H   0  0  0  0  0  0  0  0  0  0  0  0
    3.8282   -3.1594    4.2206 H   0  0  0  0  0  0  0  0  0  0  0  0
    3.1670   -1.5872    4.7345 H   0  0  0  0  0  0  0  0  0  0  0  0
    1.5163   -3.7817    4.4868 H   0  0  0  0  0  0  0  0  0  0  0  0
    0.9616   -2.1550    4.0517 H   0  0  0  0  0  0  0  0  0  0  0  0
    0.5957   -3.4084    2.0071 H   0  0  0  0  0  0  0  0  0  0  0  0
    2.1417   -4.2568    2.1857 H   0  0  0  0  0  0  0  0  0  0  0  0
    2.8625   -2.4999    0.7320 H   0  0  0  0  0  0  0  0  0  0  0  0
    0.2542   -2.1433    0.2811 H   0  0  0  0  0  0  0  0  0  0  0  0
   -0.1706    0.7814    0.5075 H   0  0  0  0  0  0  0  0  0  0  0  0
   -2.0883   -0.0500   -1.2810 H   0  0  0  0  0  0  0  0  0  0  0  0
   -0.8445   -1.1991   -1.7096 H   0  0  0  0  0  0  0  0  0  0  0  0
   -0.2898    1.8088   -1.5390 H   0  0  0  0  0  0  0  0  0  0  0  0
    0.7335    0.5663   -2.2645 H   0  0  0  0  0  0  0  0  0  0  0  0
   -1.0439    0.1416   -3.9899 H   0  0  0  0  0  0  0  0  0  0  0  0
   -0.4485    1.8223   -4.0028 H   0  0  0  0  0  0  0  0  0  0  0  0
   -1.9348    1.6341   -5.7112 H   0  0  0  0  0  0  0  0  0  0  0  0
   -3.3834    2.4075   -5.9920 H   0  0  0  0  0  0  0  0  0  0  0  0
   -5.0850    1.7079   -4.5015 H   0  0  0  0  0  0  0  0  0  0  0  0
   -4.6907    2.1014   -2.9509 H   0  0  0  0  0  0  0  0  0  0  0  0
   -2.3134    2.0184    0.1217 H   0  0  0  0  0  0  0  0  0  0  0  0
   -1.6482    2.1347    1.7728 H   0  0  0  0  0  0  0  0  0  0  0  0
   -3.6745    3.4294    2.0313 H   0  0  0  0  0  0  0  0  0  0  0  0
   -4.5495    2.4094    0.8746 H   0  0  0  0  0  0  0  0  0  0  0  0
   -5.2901    1.5322    3.0185 H   0  0  0  0  0  0  0  0  0  0  0  0
   -3.6508    1.6516    3.6879 H   0  0  0  0  0  0  0  0  0  0  0  0
   -3.5633   -0.6359    3.0178 H   0  0  0  0  0  0  0  0  0  0  0  0
   -4.0742   -0.0438   -0.3161 H   0  0  0  0  0  0  0  0  0  0  0  0
   -5.5465   -1.3472   -1.7249 H   0  0  0  0  0  0  0  0  0  0  0  0
   -6.6397   -1.5622   -0.3424 H   0  0  0  0  0  0  0  0  0  0  0  0
   -8.1929    2.6543   -0.7318 H   0  0  0  0  0  0  0  0  0  0  0  0
   -8.2957    2.1975   -2.4510 H   0  0  0  0  0  0  0  0  0  0  0  0
  -10.4701    1.2084   -2.1638 H   0  0  0  0  0  0  0  0  0  0  0  0
  -10.5997    2.5628   -1.0236 H   0  0  0  0  0  0  0  0  0  0  0  0
   -9.9290    1.1474    0.8357 H   0  0  0  0  0  0  0  0  0  0  0  0
  -11.0421    0.1078   -0.0677 H   0  0  0  0  0  0  0  0  0  0  0  0
   -8.4372   -0.6608    0.5087 H   0  0  0  0  0  0  0  0  0  0  0  0
  -10.4020   -2.8903   -1.5178 H   0  0  0  0  0  0  0  0  0  0  0  0
    6.2119    1.6037    3.6792 H   0  0  0  0  0  0  0  0  0  0  0  0
    7.7310    1.1955    3.9494 H   0  0  0  0  0  0  0  0  0  0  0  0
    8.7681    3.3591    3.5587 H   0  0  0  0  0  0  0  0  0  0  0  0
  1  2  1  0
  2  3  1  0
  3  4  1  0
  4  5  2  0
  4  6  1  0
  6  7  1  0
  7  8  1  0
  8  9  1  0
  9 10  1  0
 10 11  1  0
 11 12  1  0
  7 13  1  0
 13 14  2  0
 13 15  1  0
 15 16  1  0
 16 17  1  0
 17 18  1  0
 18 19  1  0
 19 20  1  0
 20 21  2  0
 20 22  1  0
 22 23  1  0
 23 24  1  0
 24 25  1  0
 25 26  1  0
 26 27  1  0
 27 28  2  3
 28 29  1  0
 28 30  1  0
 23 31  1  0
 31 32  2  0
 31 33  1  0
 33 34  1  0
 34 35  1  0
 35 36  1  0
 36 37  1  0
 37 38  1  0
 38 39  2  0
 38 40  1  0
 40 41  1  0
 41 42  1  0
 42 43  2  0
 42 44  1  0
 44 45  1  0
 45 46  1  0
 46 47  1  0
 47 48  1  0
 48 49  1  0
 49 50  2  0
 49 51  1  0
  3 52  1  0
  2 53  1  0
 19 15  1  0
 37 33  1  0
 48 44  1  0
  1 54  1  0
  1 55  1  0
  1 56  1  0
  2 57  1  1
  3 58  1  6
  6 59  1  0
  7 60  1  6
  8 61  1  0
  8 62  1  0
  9 63  1  0
  9 64  1  0
 10 65  1  0
 10 66  1  0
 11 67  1  0
 11 68  1  0
 12 69  1  0
 12 70  1  0
 16 71  1  0
 16 72  1  0
 17 73  1  0
 17 74  1  0
 18 75  1  0
 18 76  1  0
 19 77  1  6
 22 78  1  0
 23 79  1  1
 24 80  1  0
 24 81  1  0
 25 82  1  0
 25 83  1  0
 26 84  1  0
 26 85  1  0
 29 86  1  0
 29 87  1  0
 30 88  1  0
 30 89  1  0
 34 90  1  0
 34 91  1  0
 35 92  1  0
 35 93  1  0
 36 94  1  0
 36 95  1  0
 37 96  1  1
 40 97  1  0
 41 98  1  0
 41 99  1  0
 45100  1  0
 45101  1  0
 46102  1  0
 46103  1  0
 47104  1  0
 47105  1  0
 48106  1  1
 51107  1  0
 52108  1  0
 52109  1  0
 53110  1  0
M  END
$$$$
